<?xml version="1.0" encoding="utf-8"?>
<!DOCTYPE population SYSTEM "http://www.matsim.org/files/dtd/population_v6.dtd">

<population>

	<attributes>
		<attribute name="coordinateReferenceSystem" class="java.lang.String">Atlantis</attribute>
	</attributes>


<!-- ====================================================================== -->

	<person id="1">
		<attributes>
		</attributes>
		<plan score="53.38142892485944" selected="no">
			<activity type="h" link="1" x="-25000.0" y="0.0" end_time="06:00:00" >
			</activity>
			<leg mode="car" dep_time="06:00:00" trav_time="00:08:59">
				<attributes>
					<attribute name="routingMode" class="java.lang.String">car</attribute>
				</attributes>
				<route type="links" start_link="1" end_link="20" trav_time="00:08:59" distance="24999.0" vehicleRefId="1">1 4 13 20</route>
			</leg>
			<activity type="w" link="20" x="10000.0" y="0.0" max_dur="00:10:00" >
			</activity>
			<leg mode="car" dep_time="06:18:59" trav_time="00:32:59">
				<attributes>
					<attribute name="routingMode" class="java.lang.String">car</attribute>
				</attributes>
				<route type="links" start_link="20" end_link="1" trav_time="00:32:59" distance="65000.0" vehicleRefId="1">20 21 22 23 1</route>
			</leg>
			<activity type="h" link="1" x="-25000.0" y="0.0" >
			</activity>
		</plan>

		<plan score="59.72450502730963" selected="yes">
			<activity type="h" link="1" x="-25000.0" y="0.0" end_time="06:00:00" >
			</activity>
			<leg mode="car" dep_time="06:00:00" trav_time="00:08:59">
				<attributes>
					<attribute name="routingMode" class="java.lang.String">car</attribute>
				</attributes>
				<route type="links" start_link="1" end_link="20" trav_time="00:08:59" distance="25000.0" vehicleRefId="1">1 5 14 20</route>
			</leg>
			<activity type="w" link="20" x="10000.0" y="0.0" max_dur="00:10:00" >
			</activity>
			<leg mode="car" dep_time="06:18:59" trav_time="00:32:59">
				<attributes>
					<attribute name="routingMode" class="java.lang.String">car</attribute>
				</attributes>
				<route type="links" start_link="20" end_link="1" trav_time="00:32:59" distance="65000.0" vehicleRefId="1">20 21 22 23 1</route>
			</leg>
			<activity type="h" link="1" x="-25000.0" y="0.0" >
			</activity>
		</plan>

	</person>

<!-- ====================================================================== -->

	<person id="10">
		<attributes>
		</attributes>
		<plan score="66.01347980441243" selected="yes">
			<activity type="h" link="1" x="-25000.0" y="0.0" end_time="06:00:00" >
			</activity>
			<leg mode="bicycle" dep_time="06:00:00" trav_time="00:08:59">
				<attributes>
					<attribute name="routingMode" class="java.lang.String">bicycle</attribute>
				</attributes>
				<route type="links" start_link="1" end_link="20" trav_time="00:08:59" distance="25000.0" vehicleRefId="null">1 3 12 20</route>
			</leg>
			<activity type="w" link="20" x="10000.0" y="0.0" max_dur="00:30:00" >
			</activity>
			<leg mode="bicycle" dep_time="06:38:59" trav_time="00:32:59">
				<attributes>
					<attribute name="routingMode" class="java.lang.String">bicycle</attribute>
				</attributes>
				<route type="links" start_link="20" end_link="1" trav_time="00:32:59" distance="65000.0" vehicleRefId="null">20 21 22 23 1</route>
			</leg>
			<activity type="h" link="1" x="-25000.0" y="0.0" >
			</activity>
		</plan>

		<plan score="66.01347980441243" selected="no">
			<activity type="h" link="1" x="-25000.0" y="0.0" end_time="06:00:00" >
			</activity>
			<leg mode="bicycle" dep_time="06:00:00" trav_time="00:08:59">
				<attributes>
					<attribute name="routingMode" class="java.lang.String">bicycle</attribute>
				</attributes>
				<route type="links" start_link="1" end_link="20" trav_time="00:08:59" distance="25000.0" vehicleRefId="null">1 3 12 20</route>
			</leg>
			<activity type="w" link="20" x="10000.0" y="0.0" max_dur="00:30:00" >
			</activity>
			<leg mode="bicycle" dep_time="06:38:59" trav_time="00:32:59">
				<attributes>
					<attribute name="routingMode" class="java.lang.String">bicycle</attribute>
				</attributes>
				<route type="links" start_link="20" end_link="1" trav_time="00:32:59" distance="65000.0" vehicleRefId="null">20 21 22 23 1</route>
			</leg>
			<activity type="h" link="1" x="-25000.0" y="0.0" >
			</activity>
		</plan>

	</person>

<!-- ====================================================================== -->

	<person id="2">
		<attributes>
		</attributes>
		<plan score="84.93704952324312" selected="yes">
			<activity type="h" link="1" x="-25000.0" y="0.0" end_time="05:59:00" >
			</activity>
			<leg mode="car" dep_time="05:59:00" trav_time="00:08:59">
				<attributes>
					<attribute name="routingMode" class="java.lang.String">car</attribute>
				</attributes>
				<route type="links" start_link="1" end_link="20" trav_time="00:08:59" distance="24999.0" vehicleRefId="2">1 4 13 20</route>
			</leg>
			<activity type="w" link="20" x="10000.0" y="0.0" max_dur="02:30:00" >
			</activity>
			<leg mode="car" dep_time="08:37:59" trav_time="00:32:59">
				<attributes>
					<attribute name="routingMode" class="java.lang.String">car</attribute>
				</attributes>
				<route type="links" start_link="20" end_link="1" trav_time="00:32:59" distance="65000.0" vehicleRefId="2">20 21 22 23 1</route>
			</leg>
			<activity type="h" link="1" x="-25000.0" y="0.0" >
			</activity>
		</plan>

	</person>

<!-- ====================================================================== -->

	<person id="3">
		<attributes>
		</attributes>
		<plan score="69.83514451360632" selected="yes">
			<activity type="h" link="1" x="-25000.0" y="0.0" end_time="05:58:30" >
			</activity>
			<leg mode="car" dep_time="05:58:30" trav_time="00:08:59">
				<attributes>
					<attribute name="routingMode" class="java.lang.String">car</attribute>
				</attributes>
				<route type="links" start_link="1" end_link="20" trav_time="00:08:59" distance="24999.0" vehicleRefId="3">1 4 13 20</route>
			</leg>
			<activity type="w" link="20" x="10000.0" y="0.0" max_dur="01:30:00" >
			</activity>
			<leg mode="car" dep_time="07:37:29" trav_time="00:32:59">
				<attributes>
					<attribute name="routingMode" class="java.lang.String">car</attribute>
				</attributes>
				<route type="links" start_link="20" end_link="1" trav_time="00:32:59" distance="65000.0" vehicleRefId="3">20 21 22 23 1</route>
			</leg>
			<activity type="h" link="1" x="-25000.0" y="0.0" >
			</activity>
		</plan>

		<plan score="69.83514451360632" selected="no">
			<activity type="h" link="1" x="-25000.0" y="0.0" end_time="05:58:30" >
			</activity>
			<leg mode="car" dep_time="05:58:30" trav_time="00:08:59">
				<attributes>
					<attribute name="routingMode" class="java.lang.String">car</attribute>
				</attributes>
				<route type="links" start_link="1" end_link="20" trav_time="00:08:59" distance="25000.0" vehicleRefId="3">1 3 12 20</route>
			</leg>
			<activity type="w" link="20" x="10000.0" y="0.0" max_dur="01:30:00" >
			</activity>
			<leg mode="car" dep_time="07:37:29" trav_time="00:32:59">
				<attributes>
					<attribute name="routingMode" class="java.lang.String">car</attribute>
				</attributes>
				<route type="links" start_link="20" end_link="1" trav_time="00:32:59" distance="65000.0" vehicleRefId="3">20 21 22 23 1</route>
			</leg>
			<activity type="h" link="1" x="-25000.0" y="0.0" >
			</activity>
		</plan>

	</person>

<!-- ====================================================================== -->

	<person id="4">
		<attributes>
		</attributes>
		<plan score="86.27750309538575" selected="yes">
			<activity type="h" link="1" x="-25000.0" y="0.0" end_time="05:59:30" >
			</activity>
			<leg mode="car" dep_time="05:59:30" trav_time="00:08:59">
				<attributes>
					<attribute name="routingMode" class="java.lang.String">car</attribute>
				</attributes>
				<route type="links" start_link="1" end_link="20" trav_time="00:08:59" distance="24999.0" vehicleRefId="4">1 4 13 20</route>
			</leg>
			<activity type="w" link="20" x="10000.0" y="0.0" max_dur="02:30:00" >
			</activity>
			<leg mode="car" dep_time="08:38:29" trav_time="00:32:59">
				<attributes>
					<attribute name="routingMode" class="java.lang.String">car</attribute>
				</attributes>
				<route type="links" start_link="20" end_link="1" trav_time="00:32:59" distance="65000.0" vehicleRefId="4">20 21 22 23 1</route>
			</leg>
			<activity type="h" link="1" x="-25000.0" y="0.0" >
			</activity>
		</plan>

	</person>

<!-- ====================================================================== -->

	<person id="5">
		<attributes>
		</attributes>
		<plan score="111.37254406541061" selected="no">
			<activity type="h" link="1" x="-25000.0" y="0.0" end_time="06:00:00" >
			</activity>
			<leg mode="car" dep_time="06:00:00" trav_time="00:08:59">
				<attributes>
					<attribute name="routingMode" class="java.lang.String">car</attribute>
				</attributes>
				<route type="links" start_link="1" end_link="20" trav_time="00:08:59" distance="24999.0" vehicleRefId="5">1 4 13 20</route>
			</leg>
			<activity type="w" link="20" x="10000.0" y="0.0" max_dur="06:30:00" >
			</activity>
			<leg mode="car" dep_time="12:38:59" trav_time="00:32:59">
				<attributes>
					<attribute name="routingMode" class="java.lang.String">car</attribute>
				</attributes>
				<route type="links" start_link="20" end_link="1" trav_time="00:32:59" distance="65000.0" vehicleRefId="5">20 21 22 23 1</route>
			</leg>
			<activity type="h" link="1" x="-25000.0" y="0.0" >
			</activity>
		</plan>

		<plan score="117.2330301240552" selected="yes">
			<activity type="h" link="1" x="-25000.0" y="0.0" end_time="06:00:00" >
			</activity>
			<leg mode="car" dep_time="06:00:00" trav_time="00:08:59">
				<attributes>
					<attribute name="routingMode" class="java.lang.String">car</attribute>
				</attributes>
				<route type="links" start_link="1" end_link="20" trav_time="00:08:59" distance="25000.0" vehicleRefId="5">1 3 12 20</route>
			</leg>
			<activity type="w" link="20" x="10000.0" y="0.0" max_dur="06:30:00" >
			</activity>
			<leg mode="car" dep_time="12:38:59" trav_time="00:32:59">
				<attributes>
					<attribute name="routingMode" class="java.lang.String">car</attribute>
				</attributes>
				<route type="links" start_link="20" end_link="1" trav_time="00:32:59" distance="65000.0" vehicleRefId="5">20 21 22 23 1</route>
			</leg>
			<activity type="h" link="1" x="-25000.0" y="0.0" >
			</activity>
		</plan>

		<plan score="117.2330301240552" selected="no">
			<activity type="h" link="1" x="-25000.0" y="0.0" end_time="06:00:00" >
			</activity>
			<leg mode="car" dep_time="06:00:00" trav_time="00:08:59">
				<attributes>
					<attribute name="routingMode" class="java.lang.String">car</attribute>
				</attributes>
				<route type="links" start_link="1" end_link="20" trav_time="00:08:59" distance="25000.0" vehicleRefId="5">1 7 16 20</route>
			</leg>
			<activity type="w" link="20" x="10000.0" y="0.0" max_dur="06:30:00" >
			</activity>
			<leg mode="car" dep_time="12:38:59" trav_time="00:32:59">
				<attributes>
					<attribute name="routingMode" class="java.lang.String">car</attribute>
				</attributes>
				<route type="links" start_link="20" end_link="1" trav_time="00:32:59" distance="65000.0" vehicleRefId="5">20 21 22 23 1</route>
			</leg>
			<activity type="h" link="1" x="-25000.0" y="0.0" >
			</activity>
		</plan>

	</person>

<!-- ====================================================================== -->

	<person id="6">
		<attributes>
		</attributes>
		<plan score="66.01347980441243" selected="yes">
			<activity type="h" link="1" x="-25000.0" y="0.0" end_time="06:00:00" >
			</activity>
			<leg mode="bicycle" dep_time="06:00:00" trav_time="00:08:59">
				<attributes>
					<attribute name="routingMode" class="java.lang.String">bicycle</attribute>
				</attributes>
				<route type="links" start_link="1" end_link="20" trav_time="00:08:59" distance="25000.0" vehicleRefId="null">1 3 12 20</route>
			</leg>
			<activity type="w" link="20" x="10000.0" y="0.0" max_dur="00:30:00" >
			</activity>
			<leg mode="bicycle" dep_time="06:38:59" trav_time="00:32:59">
				<attributes>
					<attribute name="routingMode" class="java.lang.String">bicycle</attribute>
				</attributes>
				<route type="links" start_link="20" end_link="1" trav_time="00:32:59" distance="65000.0" vehicleRefId="null">20 21 22 23 1</route>
			</leg>
			<activity type="h" link="1" x="-25000.0" y="0.0" >
			</activity>
		</plan>

		<plan score="66.01347980441243" selected="no">
			<activity type="h" link="1" x="-25000.0" y="0.0" end_time="06:00:00" >
			</activity>
			<leg mode="bicycle" dep_time="06:00:00" trav_time="00:08:59">
				<attributes>
					<attribute name="routingMode" class="java.lang.String">bicycle</attribute>
				</attributes>
				<route type="links" start_link="1" end_link="20" trav_time="00:08:59" distance="25000.0" vehicleRefId="null">1 3 12 20</route>
			</leg>
			<activity type="w" link="20" x="10000.0" y="0.0" max_dur="00:30:00" >
			</activity>
			<leg mode="bicycle" dep_time="06:38:59" trav_time="00:32:59">
				<attributes>
					<attribute name="routingMode" class="java.lang.String">bicycle</attribute>
				</attributes>
				<route type="links" start_link="20" end_link="1" trav_time="00:32:59" distance="65000.0" vehicleRefId="null">20 21 22 23 1</route>
			</leg>
			<activity type="h" link="1" x="-25000.0" y="0.0" >
			</activity>
		</plan>

	</person>

<!-- ====================================================================== -->

	<person id="7">
		<attributes>
		</attributes>
		<plan score="66.01347980441243" selected="yes">
			<activity type="h" link="1" x="-25000.0" y="0.0" end_time="06:00:00" >
			</activity>
			<leg mode="bicycle" dep_time="06:00:00" trav_time="00:08:59">
				<attributes>
					<attribute name="routingMode" class="java.lang.String">bicycle</attribute>
				</attributes>
				<route type="links" start_link="1" end_link="20" trav_time="00:08:59" distance="25000.0" vehicleRefId="null">1 3 12 20</route>
			</leg>
			<activity type="w" link="20" x="10000.0" y="0.0" max_dur="00:30:00" >
			</activity>
			<leg mode="bicycle" dep_time="06:38:59" trav_time="00:32:59">
				<attributes>
					<attribute name="routingMode" class="java.lang.String">bicycle</attribute>
				</attributes>
				<route type="links" start_link="20" end_link="1" trav_time="00:32:59" distance="65000.0" vehicleRefId="null">20 21 22 23 1</route>
			</leg>
			<activity type="h" link="1" x="-25000.0" y="0.0" >
			</activity>
		</plan>

	</person>

<!-- ====================================================================== -->

	<person id="8">
		<attributes>
		</attributes>
		<plan score="66.01347980441243" selected="yes">
			<activity type="h" link="1" x="-25000.0" y="0.0" end_time="06:00:00" >
			</activity>
			<leg mode="bicycle" dep_time="06:00:00" trav_time="00:08:59">
				<attributes>
					<attribute name="routingMode" class="java.lang.String">bicycle</attribute>
				</attributes>
				<route type="links" start_link="1" end_link="20" trav_time="00:08:59" distance="25000.0" vehicleRefId="null">1 3 12 20</route>
			</leg>
			<activity type="w" link="20" x="10000.0" y="0.0" max_dur="00:30:00" >
			</activity>
			<leg mode="bicycle" dep_time="06:38:59" trav_time="00:32:59">
				<attributes>
					<attribute name="routingMode" class="java.lang.String">bicycle</attribute>
				</attributes>
				<route type="links" start_link="20" end_link="1" trav_time="00:32:59" distance="65000.0" vehicleRefId="null">20 21 22 23 1</route>
			</leg>
			<activity type="h" link="1" x="-25000.0" y="0.0" >
			</activity>
		</plan>

	</person>

<!-- ====================================================================== -->

	<person id="9">
		<attributes>
		</attributes>
		<plan score="66.01347980441243" selected="yes">
			<activity type="h" link="1" x="-25000.0" y="0.0" end_time="06:00:00" >
			</activity>
			<leg mode="bicycle" dep_time="06:00:00" trav_time="00:08:59">
				<attributes>
					<attribute name="routingMode" class="java.lang.String">bicycle</attribute>
				</attributes>
				<route type="links" start_link="1" end_link="20" trav_time="00:08:59" distance="25000.0" vehicleRefId="null">1 3 12 20</route>
			</leg>
			<activity type="w" link="20" x="10000.0" y="0.0" max_dur="00:30:00" >
			</activity>
			<leg mode="bicycle" dep_time="06:38:59" trav_time="00:32:59">
				<attributes>
					<attribute name="routingMode" class="java.lang.String">bicycle</attribute>
				</attributes>
				<route type="links" start_link="20" end_link="1" trav_time="00:32:59" distance="65000.0" vehicleRefId="null">20 21 22 23 1</route>
			</leg>
			<activity type="h" link="1" x="-25000.0" y="0.0" >
			</activity>
		</plan>

	</person>

<!-- ====================================================================== -->

</population>
