<?xml version="1.0" encoding="utf-8"?>
<!DOCTYPE population SYSTEM "http://www.matsim.org/files/dtd/population_v6.dtd">

<population>

	<attributes>
		<attribute name="coordinateReferenceSystem" class="java.lang.String">Atlantis</attribute>
	</attributes>


<!-- ====================================================================== -->

	<person id="1">
		<attributes>
		</attributes>
		<plan score="12.997330651684315" selected="yes">
			<activity type="h" link="1" x="-200.0" y="0.0" end_time="06:00:00" >
			</activity>
			<leg mode="walk" dep_time="06:00:00" trav_time="00:00:00">
				<attributes>
					<attribute name="routingMode" class="java.lang.String">pt</attribute>
				</attributes>
				<route type="generic" start_link="1" end_link="1" trav_time="00:00:00" distance="0.0"></route>
			</leg>
			<activity type="pt interaction" link="1" x="-200.0" y="0.0" max_dur="00:00:00" >
			</activity>
			<leg mode="pt" dep_time="06:00:00" trav_time="00:10:00">
				<attributes>
					<attribute name="routingMode" class="java.lang.String">pt</attribute>
				</attributes>
				<route type="default_pt" start_link="1" end_link="5" trav_time="00:10:00" distance="6039.608">{"transitRouteId":"line2","boardingTime":"06:00:00","transitLineId":"line2","accessFacilityId":"9999","egressFacilityId":"2"}</route>
			</leg>
			<activity type="pt interaction" link="5" x="4000.0" y="0.0" max_dur="00:00:00" >
			</activity>
			<leg mode="walk" dep_time="06:10:00" trav_time="00:00:00">
				<attributes>
					<attribute name="routingMode" class="java.lang.String">pt</attribute>
				</attributes>
				<route type="generic" start_link="5" end_link="12" trav_time="00:00:00" distance="0.0"></route>
			</leg>
			<activity type="w" link="12" x="4000.0" y="0.0" max_dur="00:05:00" >
			</activity>
			<leg mode="walk" dep_time="06:15:00" trav_time="00:00:00">
				<attributes>
					<attribute name="routingMode" class="java.lang.String">pt</attribute>
				</attributes>
				<route type="generic" start_link="12" end_link="5" trav_time="00:00:00" distance="0.0"></route>
			</leg>
			<activity type="pt interaction" link="5" x="4000.0" y="0.0" max_dur="00:00:00" >
			</activity>
			<leg mode="pt" dep_time="06:15:00" trav_time="00:15:00">
				<attributes>
					<attribute name="routingMode" class="java.lang.String">pt</attribute>
				</attributes>
				<route type="default_pt" start_link="5" end_link="9" trav_time="00:15:00" distance="7039.608">{"transitRouteId":"line2","boardingTime":"06:20:00","transitLineId":"line2","accessFacilityId":"2","egressFacilityId":"4"}</route>
			</leg>
			<activity type="pt interaction" link="9" x="2000.0" y="1000.0" max_dur="00:00:00" >
			</activity>
			<leg mode="walk" dep_time="06:30:00" trav_time="00:00:00">
				<attributes>
					<attribute name="routingMode" class="java.lang.String">pt</attribute>
				</attributes>
				<route type="generic" start_link="9" end_link="14" trav_time="00:00:00" distance="0.0"></route>
			</leg>
			<activity type="w" link="14" x="2000.0" y="1000.0" max_dur="00:02:00" >
			</activity>
			<leg mode="walk" dep_time="06:32:00" trav_time="01:02:49">
				<attributes>
					<attribute name="routingMode" class="java.lang.String">pt</attribute>
				</attributes>
				<route type="generic" start_link="14" end_link="1" trav_time="01:02:49" distance="3141.5919531345885"></route>
			</leg>
			<activity type="h" link="1" x="-200.0" y="0.0" >
			</activity>
		</plan>

	</person>

<!-- ====================================================================== -->

	<person id="10">
		<attributes>
		</attributes>
		<plan score="12.073152878345319" selected="yes">
			<activity type="h" link="1" x="-200.0" y="0.0" end_time="06:00:00" >
			</activity>
			<leg mode="walk" dep_time="06:00:00" trav_time="00:00:00">
				<attributes>
					<attribute name="routingMode" class="java.lang.String">pt</attribute>
				</attributes>
				<route type="generic" start_link="1" end_link="1" trav_time="00:00:00" distance="0.0"></route>
			</leg>
			<activity type="pt interaction" link="1" x="-200.0" y="0.0" max_dur="00:00:00" >
			</activity>
			<leg mode="pt" dep_time="06:00:00" trav_time="00:10:00">
				<attributes>
					<attribute name="routingMode" class="java.lang.String">pt</attribute>
				</attributes>
				<route type="default_pt" start_link="1" end_link="5" trav_time="00:10:00" distance="6039.608">{"transitRouteId":"line2","boardingTime":"06:00:00","transitLineId":"line2","accessFacilityId":"9999","egressFacilityId":"2"}</route>
			</leg>
			<activity type="pt interaction" link="5" x="4000.0" y="0.0" max_dur="00:00:00" >
			</activity>
			<leg mode="walk" dep_time="06:10:00" trav_time="00:00:00">
				<attributes>
					<attribute name="routingMode" class="java.lang.String">pt</attribute>
				</attributes>
				<route type="generic" start_link="5" end_link="12" trav_time="00:00:00" distance="0.0"></route>
			</leg>
			<activity type="w" link="12" x="4000.0" y="0.0" max_dur="00:02:00" >
			</activity>
			<leg mode="walk" dep_time="06:12:00" trav_time="00:00:00">
				<attributes>
					<attribute name="routingMode" class="java.lang.String">pt</attribute>
				</attributes>
				<route type="generic" start_link="12" end_link="5" trav_time="00:00:00" distance="0.0"></route>
			</leg>
			<activity type="pt interaction" link="5" x="4000.0" y="0.0" max_dur="00:00:00" >
			</activity>
			<leg mode="pt" dep_time="06:12:00" trav_time="00:18:00">
				<attributes>
					<attribute name="routingMode" class="java.lang.String">pt</attribute>
				</attributes>
				<route type="default_pt" start_link="5" end_link="9" trav_time="00:18:00" distance="7039.608">{"transitRouteId":"line2","boardingTime":"06:20:00","transitLineId":"line2","accessFacilityId":"2","egressFacilityId":"4"}</route>
			</leg>
			<activity type="pt interaction" link="9" x="2000.0" y="1000.0" max_dur="00:00:00" >
			</activity>
			<leg mode="walk" dep_time="06:30:00" trav_time="00:00:00">
				<attributes>
					<attribute name="routingMode" class="java.lang.String">pt</attribute>
				</attributes>
				<route type="generic" start_link="9" end_link="14" trav_time="00:00:00" distance="0.0"></route>
			</leg>
			<activity type="w" link="14" x="2000.0" y="1000.0" max_dur="00:03:00" >
			</activity>
			<leg mode="walk" dep_time="06:33:00" trav_time="01:02:49">
				<attributes>
					<attribute name="routingMode" class="java.lang.String">pt</attribute>
				</attributes>
				<route type="generic" start_link="14" end_link="1" trav_time="01:02:49" distance="3141.5919531345885"></route>
			</leg>
			<activity type="h" link="1" x="-200.0" y="0.0" >
			</activity>
		</plan>

	</person>

<!-- ====================================================================== -->

	<person id="2">
		<attributes>
		</attributes>
		<plan score="-30.195766041139493" selected="yes">
			<activity type="h" link="1" x="-200.0" y="0.0" end_time="06:00:00" >
			</activity>
			<leg mode="walk" dep_time="06:00:00" trav_time="00:00:00">
				<attributes>
					<attribute name="routingMode" class="java.lang.String">pt</attribute>
				</attributes>
				<route type="generic" start_link="1" end_link="1" trav_time="00:00:00" distance="0.0"></route>
			</leg>
			<activity type="pt interaction" link="1" x="-200.0" y="0.0" max_dur="00:00:00" >
			</activity>
			<leg mode="pt" dep_time="06:00:00" trav_time="00:10:00">
				<attributes>
					<attribute name="routingMode" class="java.lang.String">pt</attribute>
				</attributes>
				<route type="default_pt" start_link="1" end_link="4" trav_time="00:10:00" distance="4000.0">{"transitRouteId":"line1","boardingTime":"06:00:00","transitLineId":"line1","accessFacilityId":"9999","egressFacilityId":"1"}</route>
			</leg>
			<activity type="pt interaction" link="4" x="2000.0" y="0.0" max_dur="00:00:00" >
			</activity>
			<leg mode="walk" dep_time="06:10:00" trav_time="00:00:00">
				<attributes>
					<attribute name="routingMode" class="java.lang.String">pt</attribute>
				</attributes>
				<route type="generic" start_link="4" end_link="11" trav_time="00:00:00" distance="0.0"></route>
			</leg>
			<activity type="w" link="11" x="2000.0" y="0.0" max_dur="00:10:00" >
			</activity>
			<leg mode="walk" dep_time="06:20:00" trav_time="00:00:00">
				<attributes>
					<attribute name="routingMode" class="java.lang.String">pt</attribute>
				</attributes>
				<route type="generic" start_link="11" end_link="4" trav_time="00:00:00" distance="0.0"></route>
			</leg>
			<activity type="pt interaction" link="4" x="2000.0" y="0.0" max_dur="00:00:00" >
			</activity>
			<leg mode="pt" dep_time="06:20:00" trav_time="00:10:00">
				<attributes>
					<attribute name="routingMode" class="java.lang.String">pt</attribute>
				</attributes>
				<route type="default_pt" start_link="4" end_link="5" trav_time="00:10:00" distance="2000.0">{"transitRouteId":"line1","boardingTime":"06:20:00","transitLineId":"line1","accessFacilityId":"1","egressFacilityId":"2"}</route>
			</leg>
			<activity type="pt interaction" link="5" x="4000.0" y="0.0" max_dur="00:00:00" >
			</activity>
			<leg mode="walk" dep_time="06:30:00" trav_time="00:00:00">
				<attributes>
					<attribute name="routingMode" class="java.lang.String">pt</attribute>
				</attributes>
				<route type="generic" start_link="5" end_link="12" trav_time="00:00:00" distance="0.0"></route>
			</leg>
			<activity type="w" link="12" x="4000.0" y="0.0" max_dur="00:03:00" >
			</activity>
			<leg mode="walk" dep_time="06:33:00" trav_time="00:00:00">
				<attributes>
					<attribute name="routingMode" class="java.lang.String">pt</attribute>
				</attributes>
				<route type="generic" start_link="12" end_link="5" trav_time="00:00:00" distance="0.0"></route>
			</leg>
			<activity type="pt interaction" link="5" x="4000.0" y="0.0" max_dur="00:00:00" >
			</activity>
			<leg mode="pt" dep_time="06:33:00" trav_time="00:17:00">
				<attributes>
					<attribute name="routingMode" class="java.lang.String">pt</attribute>
				</attributes>
				<route type="default_pt" start_link="5" end_link="9" trav_time="00:17:00" distance="7039.608">{"transitRouteId":"line2","boardingTime":"06:40:00","transitLineId":"line2","accessFacilityId":"2","egressFacilityId":"4"}</route>
			</leg>
			<activity type="pt interaction" link="9" x="2000.0" y="1000.0" max_dur="00:00:00" >
			</activity>
			<leg mode="walk" dep_time="06:50:00" trav_time="00:00:00">
				<attributes>
					<attribute name="routingMode" class="java.lang.String">pt</attribute>
				</attributes>
				<route type="generic" start_link="9" end_link="14" trav_time="00:00:00" distance="0.0"></route>
			</leg>
			<activity type="w" link="14" x="2000.0" y="1000.0" max_dur="00:02:00" >
			</activity>
			<leg mode="walk" dep_time="06:52:00" trav_time="01:02:49">
				<attributes>
					<attribute name="routingMode" class="java.lang.String">pt</attribute>
				</attributes>
				<route type="generic" start_link="14" end_link="1" trav_time="01:02:49" distance="3141.5919531345885"></route>
			</leg>
			<activity type="h" link="1" x="-200.0" y="0.0" >
			</activity>
		</plan>

	</person>

<!-- ====================================================================== -->

	<person id="3">
		<attributes>
		</attributes>
		<plan score="15.729557562005148" selected="yes">
			<activity type="h" link="1" x="-200.0" y="0.0" end_time="06:00:00" >
			</activity>
			<leg mode="walk" dep_time="06:00:00" trav_time="00:00:00">
				<attributes>
					<attribute name="routingMode" class="java.lang.String">pt</attribute>
				</attributes>
				<route type="generic" start_link="1" end_link="1" trav_time="00:00:00" distance="0.0"></route>
			</leg>
			<activity type="pt interaction" link="1" x="-200.0" y="0.0" max_dur="00:00:00" >
			</activity>
			<leg mode="pt" dep_time="06:00:00" trav_time="00:10:00">
				<attributes>
					<attribute name="routingMode" class="java.lang.String">pt</attribute>
				</attributes>
				<route type="default_pt" start_link="1" end_link="5" trav_time="00:10:00" distance="6039.608">{"transitRouteId":"line2","boardingTime":"06:00:00","transitLineId":"line2","accessFacilityId":"9999","egressFacilityId":"2"}</route>
			</leg>
			<activity type="pt interaction" link="5" x="4000.0" y="0.0" max_dur="00:00:00" >
			</activity>
			<leg mode="walk" dep_time="06:10:00" trav_time="00:00:00">
				<attributes>
					<attribute name="routingMode" class="java.lang.String">pt</attribute>
				</attributes>
				<route type="generic" start_link="5" end_link="12" trav_time="00:00:00" distance="0.0"></route>
			</leg>
			<activity type="w" link="12" x="4000.0" y="0.0" max_dur="00:02:00" >
			</activity>
			<leg mode="walk" dep_time="06:12:00" trav_time="00:00:00">
				<attributes>
					<attribute name="routingMode" class="java.lang.String">pt</attribute>
				</attributes>
				<route type="generic" start_link="12" end_link="5" trav_time="00:00:00" distance="0.0"></route>
			</leg>
			<activity type="pt interaction" link="5" x="4000.0" y="0.0" max_dur="00:00:00" >
			</activity>
			<leg mode="pt" dep_time="06:12:00" trav_time="00:18:00">
				<attributes>
					<attribute name="routingMode" class="java.lang.String">pt</attribute>
				</attributes>
				<route type="default_pt" start_link="5" end_link="9" trav_time="00:18:00" distance="7039.608">{"transitRouteId":"line2","boardingTime":"06:20:00","transitLineId":"line2","accessFacilityId":"2","egressFacilityId":"4"}</route>
			</leg>
			<activity type="pt interaction" link="9" x="2000.0" y="1000.0" max_dur="00:00:00" >
			</activity>
			<leg mode="walk" dep_time="06:30:00" trav_time="00:00:00">
				<attributes>
					<attribute name="routingMode" class="java.lang.String">pt</attribute>
				</attributes>
				<route type="generic" start_link="9" end_link="14" trav_time="00:00:00" distance="0.0"></route>
			</leg>
			<activity type="w" link="14" x="2000.0" y="1000.0" max_dur="00:03:00" >
			</activity>
			<leg mode="walk" dep_time="06:33:00" trav_time="01:02:49">
				<attributes>
					<attribute name="routingMode" class="java.lang.String">pt</attribute>
				</attributes>
				<route type="generic" start_link="14" end_link="1" trav_time="01:02:49" distance="3141.5919531345885"></route>
			</leg>
			<activity type="h" link="1" x="-200.0" y="0.0" >
			</activity>
		</plan>

	</person>

<!-- ====================================================================== -->

	<person id="4">
		<attributes>
		</attributes>
		<plan score="-30.375656280671016" selected="yes">
			<activity type="h" link="1" x="-200.0" y="0.0" end_time="06:00:00" >
			</activity>
			<leg mode="walk" dep_time="06:00:00" trav_time="00:00:00">
				<attributes>
					<attribute name="routingMode" class="java.lang.String">pt</attribute>
				</attributes>
				<route type="generic" start_link="1" end_link="1" trav_time="00:00:00" distance="0.0"></route>
			</leg>
			<activity type="pt interaction" link="1" x="-200.0" y="0.0" max_dur="00:00:00" >
			</activity>
			<leg mode="pt" dep_time="06:00:00" trav_time="00:10:00">
				<attributes>
					<attribute name="routingMode" class="java.lang.String">pt</attribute>
				</attributes>
				<route type="default_pt" start_link="1" end_link="4" trav_time="00:10:00" distance="4000.0">{"transitRouteId":"line1","boardingTime":"06:00:00","transitLineId":"line1","accessFacilityId":"9999","egressFacilityId":"1"}</route>
			</leg>
			<activity type="pt interaction" link="4" x="2000.0" y="0.0" max_dur="00:00:00" >
			</activity>
			<leg mode="walk" dep_time="06:10:00" trav_time="00:00:00">
				<attributes>
					<attribute name="routingMode" class="java.lang.String">pt</attribute>
				</attributes>
				<route type="generic" start_link="4" end_link="11" trav_time="00:00:00" distance="0.0"></route>
			</leg>
			<activity type="w" link="11" x="2000.0" y="0.0" max_dur="00:10:00" >
			</activity>
			<leg mode="walk" dep_time="06:20:00" trav_time="00:00:00">
				<attributes>
					<attribute name="routingMode" class="java.lang.String">pt</attribute>
				</attributes>
				<route type="generic" start_link="11" end_link="4" trav_time="00:00:00" distance="0.0"></route>
			</leg>
			<activity type="pt interaction" link="4" x="2000.0" y="0.0" max_dur="00:00:00" >
			</activity>
			<leg mode="pt" dep_time="06:20:00" trav_time="00:10:00">
				<attributes>
					<attribute name="routingMode" class="java.lang.String">pt</attribute>
				</attributes>
				<route type="default_pt" start_link="4" end_link="5" trav_time="00:10:00" distance="2000.0">{"transitRouteId":"line1","boardingTime":"06:20:00","transitLineId":"line1","accessFacilityId":"1","egressFacilityId":"2"}</route>
			</leg>
			<activity type="pt interaction" link="5" x="4000.0" y="0.0" max_dur="00:00:00" >
			</activity>
			<leg mode="walk" dep_time="06:30:00" trav_time="00:00:00">
				<attributes>
					<attribute name="routingMode" class="java.lang.String">pt</attribute>
				</attributes>
				<route type="generic" start_link="5" end_link="12" trav_time="00:00:00" distance="0.0"></route>
			</leg>
			<activity type="w" link="12" x="4000.0" y="0.0" max_dur="00:02:00" >
			</activity>
			<leg mode="walk" dep_time="06:32:00" trav_time="00:00:00">
				<attributes>
					<attribute name="routingMode" class="java.lang.String">pt</attribute>
				</attributes>
				<route type="generic" start_link="12" end_link="5" trav_time="00:00:00" distance="0.0"></route>
			</leg>
			<activity type="pt interaction" link="5" x="4000.0" y="0.0" max_dur="00:00:00" >
			</activity>
			<leg mode="pt" dep_time="06:32:00" trav_time="00:18:00">
				<attributes>
					<attribute name="routingMode" class="java.lang.String">pt</attribute>
				</attributes>
				<route type="default_pt" start_link="5" end_link="9" trav_time="00:18:00" distance="7039.608">{"transitRouteId":"line2","boardingTime":"06:40:00","transitLineId":"line2","accessFacilityId":"2","egressFacilityId":"4"}</route>
			</leg>
			<activity type="pt interaction" link="9" x="2000.0" y="1000.0" max_dur="00:00:00" >
			</activity>
			<leg mode="walk" dep_time="06:50:00" trav_time="00:00:00">
				<attributes>
					<attribute name="routingMode" class="java.lang.String">pt</attribute>
				</attributes>
				<route type="generic" start_link="9" end_link="14" trav_time="00:00:00" distance="0.0"></route>
			</leg>
			<activity type="w" link="14" x="2000.0" y="1000.0" max_dur="00:03:00" >
			</activity>
			<leg mode="walk" dep_time="06:53:00" trav_time="01:02:49">
				<attributes>
					<attribute name="routingMode" class="java.lang.String">pt</attribute>
				</attributes>
				<route type="generic" start_link="14" end_link="1" trav_time="01:02:49" distance="3141.5919531345885"></route>
			</leg>
			<activity type="h" link="1" x="-200.0" y="0.0" >
			</activity>
		</plan>

	</person>

<!-- ====================================================================== -->

	<person id="5">
		<attributes>
		</attributes>
		<plan score="15.732596537263397" selected="yes">
			<activity type="h" link="1" x="-200.0" y="0.0" end_time="06:00:00" >
			</activity>
			<leg mode="walk" dep_time="06:00:00" trav_time="00:00:00">
				<attributes>
					<attribute name="routingMode" class="java.lang.String">pt</attribute>
				</attributes>
				<route type="generic" start_link="1" end_link="1" trav_time="00:00:00" distance="0.0"></route>
			</leg>
			<activity type="pt interaction" link="1" x="-200.0" y="0.0" max_dur="00:00:00" >
			</activity>
			<leg mode="pt" dep_time="06:00:00" trav_time="00:10:00">
				<attributes>
					<attribute name="routingMode" class="java.lang.String">pt</attribute>
				</attributes>
				<route type="default_pt" start_link="1" end_link="5" trav_time="00:10:00" distance="6039.608">{"transitRouteId":"line2","boardingTime":"06:00:00","transitLineId":"line2","accessFacilityId":"9999","egressFacilityId":"2"}</route>
			</leg>
			<activity type="pt interaction" link="5" x="4000.0" y="0.0" max_dur="00:00:00" >
			</activity>
			<leg mode="walk" dep_time="06:10:00" trav_time="00:00:00">
				<attributes>
					<attribute name="routingMode" class="java.lang.String">pt</attribute>
				</attributes>
				<route type="generic" start_link="5" end_link="12" trav_time="00:00:00" distance="0.0"></route>
			</leg>
			<activity type="w" link="12" x="4000.0" y="0.0" max_dur="00:02:00" >
			</activity>
			<leg mode="walk" dep_time="06:12:00" trav_time="00:00:00">
				<attributes>
					<attribute name="routingMode" class="java.lang.String">pt</attribute>
				</attributes>
				<route type="generic" start_link="12" end_link="5" trav_time="00:00:00" distance="0.0"></route>
			</leg>
			<activity type="pt interaction" link="5" x="4000.0" y="0.0" max_dur="00:00:00" >
			</activity>
			<leg mode="pt" dep_time="06:12:00" trav_time="00:18:00">
				<attributes>
					<attribute name="routingMode" class="java.lang.String">pt</attribute>
				</attributes>
				<route type="default_pt" start_link="5" end_link="9" trav_time="00:18:00" distance="7039.608">{"transitRouteId":"line2","boardingTime":"06:20:00","transitLineId":"line2","accessFacilityId":"2","egressFacilityId":"4"}</route>
			</leg>
			<activity type="pt interaction" link="9" x="2000.0" y="1000.0" max_dur="00:00:00" >
			</activity>
			<leg mode="walk" dep_time="06:30:00" trav_time="00:00:00">
				<attributes>
					<attribute name="routingMode" class="java.lang.String">pt</attribute>
				</attributes>
				<route type="generic" start_link="9" end_link="14" trav_time="00:00:00" distance="0.0"></route>
			</leg>
			<activity type="w" link="14" x="2000.0" y="1000.0" max_dur="00:03:00" >
			</activity>
			<leg mode="walk" dep_time="06:33:00" trav_time="01:02:49">
				<attributes>
					<attribute name="routingMode" class="java.lang.String">pt</attribute>
				</attributes>
				<route type="generic" start_link="14" end_link="1" trav_time="01:02:49" distance="3141.5919531345885"></route>
			</leg>
			<activity type="h" link="1" x="-200.0" y="0.0" >
			</activity>
		</plan>

	</person>

<!-- ====================================================================== -->

	<person id="6">
		<attributes>
		</attributes>
		<plan score="19.36692785094153" selected="yes">
			<activity type="h" link="1" x="-200.0" y="0.0" end_time="06:00:00" >
			</activity>
			<leg mode="walk" dep_time="06:00:00" trav_time="00:00:00">
				<attributes>
					<attribute name="routingMode" class="java.lang.String">pt</attribute>
				</attributes>
				<route type="generic" start_link="1" end_link="1" trav_time="00:00:00" distance="0.0"></route>
			</leg>
			<activity type="pt interaction" link="1" x="-200.0" y="0.0" max_dur="00:00:00" >
			</activity>
			<leg mode="pt" dep_time="06:00:00" trav_time="00:10:00">
				<attributes>
					<attribute name="routingMode" class="java.lang.String">pt</attribute>
				</attributes>
				<route type="default_pt" start_link="1" end_link="5" trav_time="00:10:00" distance="6039.608">{"transitRouteId":"line2","boardingTime":"06:00:00","transitLineId":"line2","accessFacilityId":"9999","egressFacilityId":"2"}</route>
			</leg>
			<activity type="pt interaction" link="5" x="4000.0" y="0.0" max_dur="00:00:00" >
			</activity>
			<leg mode="walk" dep_time="06:10:00" trav_time="00:00:00">
				<attributes>
					<attribute name="routingMode" class="java.lang.String">pt</attribute>
				</attributes>
				<route type="generic" start_link="5" end_link="12" trav_time="00:00:00" distance="0.0"></route>
			</leg>
			<activity type="w" link="12" x="4000.0" y="0.0" max_dur="00:02:00" >
			</activity>
			<leg mode="walk" dep_time="06:12:00" trav_time="00:00:00">
				<attributes>
					<attribute name="routingMode" class="java.lang.String">pt</attribute>
				</attributes>
				<route type="generic" start_link="12" end_link="5" trav_time="00:00:00" distance="0.0"></route>
			</leg>
			<activity type="pt interaction" link="5" x="4000.0" y="0.0" max_dur="00:00:00" >
			</activity>
			<leg mode="pt" dep_time="06:12:00" trav_time="00:18:00">
				<attributes>
					<attribute name="routingMode" class="java.lang.String">pt</attribute>
				</attributes>
				<route type="default_pt" start_link="5" end_link="9" trav_time="00:18:00" distance="7039.608">{"transitRouteId":"line2","boardingTime":"06:20:00","transitLineId":"line2","accessFacilityId":"2","egressFacilityId":"4"}</route>
			</leg>
			<activity type="pt interaction" link="9" x="2000.0" y="1000.0" max_dur="00:00:00" >
			</activity>
			<leg mode="walk" dep_time="06:30:00" trav_time="00:00:00">
				<attributes>
					<attribute name="routingMode" class="java.lang.String">pt</attribute>
				</attributes>
				<route type="generic" start_link="9" end_link="14" trav_time="00:00:00" distance="0.0"></route>
			</leg>
			<activity type="w" link="14" x="2000.0" y="1000.0" max_dur="00:03:00" >
			</activity>
			<leg mode="walk" dep_time="06:33:00" trav_time="01:02:49">
				<attributes>
					<attribute name="routingMode" class="java.lang.String">pt</attribute>
				</attributes>
				<route type="generic" start_link="14" end_link="1" trav_time="01:02:49" distance="3141.5919531345885"></route>
			</leg>
			<activity type="h" link="1" x="-200.0" y="0.0" >
			</activity>
		</plan>

	</person>

<!-- ====================================================================== -->

	<person id="7">
		<attributes>
		</attributes>
		<plan score="-26.731893118819123" selected="yes">
			<activity type="h" link="1" x="-200.0" y="0.0" end_time="06:00:00" >
			</activity>
			<leg mode="walk" dep_time="06:00:00" trav_time="00:00:00">
				<attributes>
					<attribute name="routingMode" class="java.lang.String">pt</attribute>
				</attributes>
				<route type="generic" start_link="1" end_link="1" trav_time="00:00:00" distance="0.0"></route>
			</leg>
			<activity type="pt interaction" link="1" x="-200.0" y="0.0" max_dur="00:00:00" >
			</activity>
			<leg mode="pt" dep_time="06:00:00" trav_time="00:10:00">
				<attributes>
					<attribute name="routingMode" class="java.lang.String">pt</attribute>
				</attributes>
				<route type="default_pt" start_link="1" end_link="4" trav_time="00:10:00" distance="4000.0">{"transitRouteId":"line1","boardingTime":"06:00:00","transitLineId":"line1","accessFacilityId":"9999","egressFacilityId":"1"}</route>
			</leg>
			<activity type="pt interaction" link="4" x="2000.0" y="0.0" max_dur="00:00:00" >
			</activity>
			<leg mode="walk" dep_time="06:10:00" trav_time="00:00:00">
				<attributes>
					<attribute name="routingMode" class="java.lang.String">pt</attribute>
				</attributes>
				<route type="generic" start_link="4" end_link="11" trav_time="00:00:00" distance="0.0"></route>
			</leg>
			<activity type="w" link="11" x="2000.0" y="0.0" max_dur="00:10:00" >
			</activity>
			<leg mode="walk" dep_time="06:20:00" trav_time="00:00:00">
				<attributes>
					<attribute name="routingMode" class="java.lang.String">pt</attribute>
				</attributes>
				<route type="generic" start_link="11" end_link="4" trav_time="00:00:00" distance="0.0"></route>
			</leg>
			<activity type="pt interaction" link="4" x="2000.0" y="0.0" max_dur="00:00:00" >
			</activity>
			<leg mode="pt" dep_time="06:20:00" trav_time="00:10:00">
				<attributes>
					<attribute name="routingMode" class="java.lang.String">pt</attribute>
				</attributes>
				<route type="default_pt" start_link="4" end_link="5" trav_time="00:10:00" distance="2000.0">{"transitRouteId":"line1","boardingTime":"06:20:00","transitLineId":"line1","accessFacilityId":"1","egressFacilityId":"2"}</route>
			</leg>
			<activity type="pt interaction" link="5" x="4000.0" y="0.0" max_dur="00:00:00" >
			</activity>
			<leg mode="walk" dep_time="06:30:00" trav_time="00:00:00">
				<attributes>
					<attribute name="routingMode" class="java.lang.String">pt</attribute>
				</attributes>
				<route type="generic" start_link="5" end_link="12" trav_time="00:00:00" distance="0.0"></route>
			</leg>
			<activity type="w" link="12" x="4000.0" y="0.0" max_dur="00:02:00" >
			</activity>
			<leg mode="walk" dep_time="06:32:00" trav_time="00:00:00">
				<attributes>
					<attribute name="routingMode" class="java.lang.String">pt</attribute>
				</attributes>
				<route type="generic" start_link="12" end_link="5" trav_time="00:00:00" distance="0.0"></route>
			</leg>
			<activity type="pt interaction" link="5" x="4000.0" y="0.0" max_dur="00:00:00" >
			</activity>
			<leg mode="pt" dep_time="06:32:00" trav_time="00:18:00">
				<attributes>
					<attribute name="routingMode" class="java.lang.String">pt</attribute>
				</attributes>
				<route type="default_pt" start_link="5" end_link="9" trav_time="00:18:00" distance="7039.608">{"transitRouteId":"line2","boardingTime":"06:40:00","transitLineId":"line2","accessFacilityId":"2","egressFacilityId":"4"}</route>
			</leg>
			<activity type="pt interaction" link="9" x="2000.0" y="1000.0" max_dur="00:00:00" >
			</activity>
			<leg mode="walk" dep_time="06:50:00" trav_time="00:00:00">
				<attributes>
					<attribute name="routingMode" class="java.lang.String">pt</attribute>
				</attributes>
				<route type="generic" start_link="9" end_link="14" trav_time="00:00:00" distance="0.0"></route>
			</leg>
			<activity type="w" link="14" x="2000.0" y="1000.0" max_dur="00:03:00" >
			</activity>
			<leg mode="walk" dep_time="06:53:00" trav_time="01:02:49">
				<attributes>
					<attribute name="routingMode" class="java.lang.String">pt</attribute>
				</attributes>
				<route type="generic" start_link="14" end_link="1" trav_time="01:02:49" distance="3141.5919531345885"></route>
			</leg>
			<activity type="h" link="1" x="-200.0" y="0.0" >
			</activity>
		</plan>

	</person>

<!-- ====================================================================== -->

	<person id="8">
		<attributes>
		</attributes>
		<plan score="19.544981441367966" selected="yes">
			<activity type="h" link="1" x="-200.0" y="0.0" end_time="06:00:00" >
			</activity>
			<leg mode="walk" dep_time="06:00:00" trav_time="00:00:00">
				<attributes>
					<attribute name="routingMode" class="java.lang.String">pt</attribute>
				</attributes>
				<route type="generic" start_link="1" end_link="1" trav_time="00:00:00" distance="0.0"></route>
			</leg>
			<activity type="pt interaction" link="1" x="-200.0" y="0.0" max_dur="00:00:00" >
			</activity>
			<leg mode="pt" dep_time="06:00:00" trav_time="00:10:00">
				<attributes>
					<attribute name="routingMode" class="java.lang.String">pt</attribute>
				</attributes>
				<route type="default_pt" start_link="1" end_link="5" trav_time="00:10:00" distance="6039.608">{"transitRouteId":"line2","boardingTime":"06:00:00","transitLineId":"line2","accessFacilityId":"9999","egressFacilityId":"2"}</route>
			</leg>
			<activity type="pt interaction" link="5" x="4000.0" y="0.0" max_dur="00:00:00" >
			</activity>
			<leg mode="walk" dep_time="06:10:00" trav_time="00:00:00">
				<attributes>
					<attribute name="routingMode" class="java.lang.String">pt</attribute>
				</attributes>
				<route type="generic" start_link="5" end_link="12" trav_time="00:00:00" distance="0.0"></route>
			</leg>
			<activity type="w" link="12" x="4000.0" y="0.0" max_dur="00:03:00" >
			</activity>
			<leg mode="walk" dep_time="06:13:00" trav_time="00:00:00">
				<attributes>
					<attribute name="routingMode" class="java.lang.String">pt</attribute>
				</attributes>
				<route type="generic" start_link="12" end_link="5" trav_time="00:00:00" distance="0.0"></route>
			</leg>
			<activity type="pt interaction" link="5" x="4000.0" y="0.0" max_dur="00:00:00" >
			</activity>
			<leg mode="pt" dep_time="06:13:00" trav_time="00:17:00">
				<attributes>
					<attribute name="routingMode" class="java.lang.String">pt</attribute>
				</attributes>
				<route type="default_pt" start_link="5" end_link="9" trav_time="00:17:00" distance="7039.608">{"transitRouteId":"line2","boardingTime":"06:20:00","transitLineId":"line2","accessFacilityId":"2","egressFacilityId":"4"}</route>
			</leg>
			<activity type="pt interaction" link="9" x="2000.0" y="1000.0" max_dur="00:00:00" >
			</activity>
			<leg mode="walk" dep_time="06:30:00" trav_time="00:00:00">
				<attributes>
					<attribute name="routingMode" class="java.lang.String">pt</attribute>
				</attributes>
				<route type="generic" start_link="9" end_link="14" trav_time="00:00:00" distance="0.0"></route>
			</leg>
			<activity type="w" link="14" x="2000.0" y="1000.0" max_dur="00:02:00" >
			</activity>
			<leg mode="walk" dep_time="06:32:00" trav_time="01:02:49">
				<attributes>
					<attribute name="routingMode" class="java.lang.String">pt</attribute>
				</attributes>
				<route type="generic" start_link="14" end_link="1" trav_time="01:02:49" distance="3141.5919531345885"></route>
			</leg>
			<activity type="h" link="1" x="-200.0" y="0.0" >
			</activity>
		</plan>

	</person>

<!-- ====================================================================== -->

	<person id="9">
		<attributes>
		</attributes>
		<plan score="-26.728864526793522" selected="yes">
			<activity type="h" link="1" x="-200.0" y="0.0" end_time="06:00:00" >
			</activity>
			<leg mode="walk" dep_time="06:00:00" trav_time="00:00:00">
				<attributes>
					<attribute name="routingMode" class="java.lang.String">pt</attribute>
				</attributes>
				<route type="generic" start_link="1" end_link="1" trav_time="00:00:00" distance="0.0"></route>
			</leg>
			<activity type="pt interaction" link="1" x="-200.0" y="0.0" max_dur="00:00:00" >
			</activity>
			<leg mode="pt" dep_time="06:00:00" trav_time="00:10:00">
				<attributes>
					<attribute name="routingMode" class="java.lang.String">pt</attribute>
				</attributes>
				<route type="default_pt" start_link="1" end_link="4" trav_time="00:10:00" distance="4000.0">{"transitRouteId":"line1","boardingTime":"06:00:00","transitLineId":"line1","accessFacilityId":"9999","egressFacilityId":"1"}</route>
			</leg>
			<activity type="pt interaction" link="4" x="2000.0" y="0.0" max_dur="00:00:00" >
			</activity>
			<leg mode="walk" dep_time="06:10:00" trav_time="00:00:00">
				<attributes>
					<attribute name="routingMode" class="java.lang.String">pt</attribute>
				</attributes>
				<route type="generic" start_link="4" end_link="11" trav_time="00:00:00" distance="0.0"></route>
			</leg>
			<activity type="w" link="11" x="2000.0" y="0.0" max_dur="00:10:00" >
			</activity>
			<leg mode="walk" dep_time="06:20:00" trav_time="00:00:00">
				<attributes>
					<attribute name="routingMode" class="java.lang.String">pt</attribute>
				</attributes>
				<route type="generic" start_link="11" end_link="4" trav_time="00:00:00" distance="0.0"></route>
			</leg>
			<activity type="pt interaction" link="4" x="2000.0" y="0.0" max_dur="00:00:00" >
			</activity>
			<leg mode="pt" dep_time="06:20:00" trav_time="00:10:00">
				<attributes>
					<attribute name="routingMode" class="java.lang.String">pt</attribute>
				</attributes>
				<route type="default_pt" start_link="4" end_link="5" trav_time="00:10:00" distance="2000.0">{"transitRouteId":"line1","boardingTime":"06:20:00","transitLineId":"line1","accessFacilityId":"1","egressFacilityId":"2"}</route>
			</leg>
			<activity type="pt interaction" link="5" x="4000.0" y="0.0" max_dur="00:00:00" >
			</activity>
			<leg mode="walk" dep_time="06:30:00" trav_time="00:00:00">
				<attributes>
					<attribute name="routingMode" class="java.lang.String">pt</attribute>
				</attributes>
				<route type="generic" start_link="5" end_link="12" trav_time="00:00:00" distance="0.0"></route>
			</leg>
			<activity type="w" link="12" x="4000.0" y="0.0" max_dur="00:02:00" >
			</activity>
			<leg mode="walk" dep_time="06:32:00" trav_time="00:00:00">
				<attributes>
					<attribute name="routingMode" class="java.lang.String">pt</attribute>
				</attributes>
				<route type="generic" start_link="12" end_link="5" trav_time="00:00:00" distance="0.0"></route>
			</leg>
			<activity type="pt interaction" link="5" x="4000.0" y="0.0" max_dur="00:00:00" >
			</activity>
			<leg mode="pt" dep_time="06:32:00" trav_time="00:18:00">
				<attributes>
					<attribute name="routingMode" class="java.lang.String">pt</attribute>
				</attributes>
				<route type="default_pt" start_link="5" end_link="9" trav_time="00:18:00" distance="7039.608">{"transitRouteId":"line2","boardingTime":"06:40:00","transitLineId":"line2","accessFacilityId":"2","egressFacilityId":"4"}</route>
			</leg>
			<activity type="pt interaction" link="9" x="2000.0" y="1000.0" max_dur="00:00:00" >
			</activity>
			<leg mode="walk" dep_time="06:50:00" trav_time="00:00:00">
				<attributes>
					<attribute name="routingMode" class="java.lang.String">pt</attribute>
				</attributes>
				<route type="generic" start_link="9" end_link="14" trav_time="00:00:00" distance="0.0"></route>
			</leg>
			<activity type="w" link="14" x="2000.0" y="1000.0" max_dur="00:03:00" >
			</activity>
			<leg mode="walk" dep_time="06:53:00" trav_time="01:02:49">
				<attributes>
					<attribute name="routingMode" class="java.lang.String">pt</attribute>
				</attributes>
				<route type="generic" start_link="14" end_link="1" trav_time="01:02:49" distance="3141.5919531345885"></route>
			</leg>
			<activity type="h" link="1" x="-200.0" y="0.0" >
			</activity>
		</plan>

	</person>

<!-- ====================================================================== -->

</population>
