<?xml version="1.0" encoding="UTF-8"?>

<vehicleDefinitions xmlns="http://www.matsim.org/files/dtd" xmlns:xsi="http://www.w3.org/2001/XMLSchema-instance" xsi:schemaLocation="http://www.matsim.org/files/dtd http://www.matsim.org/files/dtd/vehicleDefinitions_v2.0.xsd">

	<vehicleType id="1">

		<description>pt</description>
		<capacity seats="1" standingRoomInPersons="1">

		</capacity>
		<length meter="12.0"/>
		<width meter="1.0"/>
		<costInformation>

		</costInformation>
		<passengerCarEquivalents pce="1.0"/>
		<networkMode networkMode="car"/>
		<flowEfficiencyFactor factor="1.0"/>
	</vehicleType>

	<vehicle id="1000" type="1"/>
	<vehicle id="1001" type="1"/>
	<vehicle id="1002" type="1"/>
	<vehicle id="1003" type="1"/>
	<vehicle id="1004" type="1"/>
	<vehicle id="1005" type="1"/>
	<vehicle id="1006" type="1"/>
	<vehicle id="1007" type="1"/>
	<vehicle id="1008" type="1"/>
	<vehicle id="1009" type="1"/>
	<vehicle id="1010" type="1"/>
	<vehicle id="2000" type="1"/>
	<vehicle id="2001" type="1"/>
	<vehicle id="2002" type="1"/>
	<vehicle id="2003" type="1"/>
	<vehicle id="2004" type="1"/>
	<vehicle id="2005" type="1"/>
	<vehicle id="2006" type="1"/>
	<vehicle id="2007" type="1"/>
	<vehicle id="2008" type="1"/>
	<vehicle id="2009" type="1"/>
	<vehicle id="2010" type="1"/>
		

</vehicleDefinitions>