<?xml version="1.0" encoding="UTF-8"?>
<!DOCTYPE network SYSTEM "http://www.matsim.org/files/dtd/network_v2.dtd">
<network name="simple trainstation">

	<attributes>
		<attribute name="coordinateReferenceSystem" class="java.lang.String">Atlantis</attribute>
	</attributes>
<!-- ====================================================================== -->

	<nodes>
		<node id="1" x="0.0" y="0.0" >
		</node>
		<node id="1000" x="-200.0" y="0.0" >
		</node>
		<node id="2" x="2000.0" y="0.0" >
		</node>
		<node id="2-3o" x="3000.0" y="-200.0" >
		</node>
		<node id="3" x="4000.0" y="0.0" >
		</node>
		<node id="4" x="6000.0" y="0.0" >
		</node>
		<node id="5" x="6000.0" y="1000.0" >
		</node>
		<node id="6" x="4000.0" y="1000.0" >
		</node>
		<node id="6-7o" x="3000.0" y="1200.0" >
		</node>
		<node id="7" x="2000.0" y="1000.0" >
		</node>
		<node id="8" x="0.0" y="1000.0" >
		</node>
	</nodes>

<!-- ====================================================================== -->

	<links capperiod="01:00:00" effectivecellsize="7.5" effectivelanewidth="3.75">
		<link id="1" from="1000" to="1" length="200.0" freespeed="25.0" capacity="12.0" permlanes="1.0" oneway="1" modes="train" >
		</link>
		<link id="10" from="8" to="1" length="1000.0" freespeed="25.0" capacity="12.0" permlanes="1.0" oneway="1" modes="train" >
		</link>
		<link id="11" from="2" to="2-3o" length="1019.804" freespeed="25.0" capacity="12.0" permlanes="1.0" oneway="1" modes="train" >
		</link>
		<link id="12" from="2-3o" to="3" length="1019.804" freespeed="25.0" capacity="12.0" permlanes="1.0" oneway="1" modes="train" >
		</link>
		<link id="13" from="6" to="6-7o" length="1019.804" freespeed="25.0" capacity="12.0" permlanes="1.0" oneway="1" modes="train" >
		</link>
		<link id="14" from="6-7o" to="7" length="1019.804" freespeed="25.0" capacity="12.0" permlanes="1.0" oneway="1" modes="train" >
		</link>
		<link id="2" from="1" to="1000" length="200.0" freespeed="25.0" capacity="12.0" permlanes="1.0" oneway="1" modes="train" >
		</link>
		<link id="3" from="1" to="2" length="2000.0" freespeed="25.0" capacity="12.0" permlanes="1.0" oneway="1" modes="train" >
		</link>
		<link id="4" from="2" to="3" length="2000.0" freespeed="25.0" capacity="12.0" permlanes="1.0" oneway="1" modes="train" >
		</link>
		<link id="5" from="3" to="4" length="2000.0" freespeed="25.0" capacity="12.0" permlanes="1.0" oneway="1" modes="train" >
		</link>
		<link id="6" from="4" to="5" length="1000.0" freespeed="25.0" capacity="12.0" permlanes="1.0" oneway="1" modes="train" >
		</link>
		<link id="7" from="5" to="6" length="2000.0" freespeed="25.0" capacity="12.0" permlanes="1.0" oneway="1" modes="train" >
		</link>
		<link id="8" from="6" to="7" length="2000.0" freespeed="25.0" capacity="12.0" permlanes="1.0" oneway="1" modes="train" >
		</link>
		<link id="9" from="7" to="8" length="2000.0" freespeed="25.0" capacity="12.0" permlanes="1.0" oneway="1" modes="train" >
		</link>
	</links>

<!-- ====================================================================== -->

</network>
