2022-02-10T12:29:20,504  INFO Gbl:63 JVM: 11.0.13; Oracle Corporation; mixed mode; 64-bit
2022-02-10T12:29:20,509  INFO Gbl:67 OS: Windows 10; 10.0; amd64
2022-02-10T12:29:20,510  INFO Gbl:70 CPU cores: 8
2022-02-10T12:29:20,524  INFO Gbl:71 max. Memory: 1024.0MB (1073741824B)
2022-02-10T12:29:20,538  INFO Gbl:109 MATSim-Build: r2e1ebdd9374731ec45d5e5435ee544ef8db1a6ee (2021-04-10 20:07:43)
2022-02-10T12:29:20,544  INFO ControlerListenerManagerImpl:107 calling notifyStartup on org.matsim.guice.DependencyGraphControlerListener
2022-02-10T12:29:20,554  INFO MemoryObserver:41 used RAM: 29 MB  free: 98 MB  total: 128 MB
2022-02-10T12:29:20,714  INFO ControlerListenerManagerImpl:107 calling notifyStartup on org.matsim.counts.CountsControlerListener
2022-02-10T12:29:20,714  INFO ControlerListenerManagerImpl:107 calling notifyStartup on org.matsim.analysis.ModeStatsControlerListener
2022-02-10T12:29:20,714  INFO ControlerListenerManagerImpl:107 calling notifyStartup on org.matsim.analysis.ScoreStatsControlerListener
2022-02-10T12:29:20,715  INFO ControlerListenerManagerImpl:110 all ControlerStartupListeners called.
2022-02-10T12:29:20,716  INFO ControlerUtils:79 config dump before iterations start
2022-02-10T12:29:20,764  INFO ControlerUtils:83 

<?xml version="1.0" encoding="UTF-8"?>
<!DOCTYPE config SYSTEM "http://www.matsim.org/files/dtd/config_v2.dtd">
<config>
	<module name="JDEQSim" >
		<param name="carSize" value="7.5" />
		<param name="endTime" value="undefined" />
		<param name="flowCapacityFactor" value="1.0" />
		<param name="gapTravelSpeed" value="15.0" />
		<param name="minimumInFlowCapacity" value="1800.0" />
		<param name="squeezeTime" value="1800.0" />
		<param name="storageCapacityFactor" value="1.0" />
	</module>
	<module name="TimeAllocationMutator" >
		<!-- Default:true; Defines whether time mutation changes an activity's duration. -->
		<param name="mutationAffectsDuration" value="true" />
		<!-- Default:1800.0; Defines how many seconds a time mutation can maximally shift a time. -->
		<param name="mutationRange" value="1800.0" />
	</module>
	<module name="changeMode" >
		<!-- Defines whether car availability is considered be considered or not. An agent has no car only if it has no license, or never access to a car. Default: true -->
		<param name="ignoreCarAvailability" value="true" />
		<!-- Defines the mode switch behavior. Possible values [fromAllModesToSpecifiedModes, fromSpecifiedModesToSpecifiedModes] Default: fromSpecifiedModesToSpecifiedModes. -->
		<param name="modeSwitchBehavior" value="fromSpecifiedModesToSpecifiedModes" />
		<!-- Defines all the modes available, including chain-based modes, seperated by commas -->
		<param name="modes" value="car,pt" />
	</module>
	<module name="controler" >
		<!-- Compression algorithm to use when writing out data to files. Possible values: [none, gzip, lz4, zst] -->
		<param name="compressionType" value="gzip" />
		<!-- Sets whether graphs showing some analyses should automatically be generated during the simulation. The generation of graphs usually takes a small amount of time that does not have any weight in big simulations, but add a significant overhead in smaller runs or in test cases where the graphical output is not even requested. -->
		<param name="createGraphs" value="true" />
		<!-- true if at the end of a run, plans, network, config etc should be dumped to a file -->
		<param name="dumpDataAtEnd" value="true" />
		<!-- Default=false. If enabled, the router takes travel times needed for turning moves into account. Cannot be used if the (Fast)AStarLandmarks routing or TravelTimeCalculator.separateModes is enabled. -->
		<param name="enableLinkToLinkRouting" value="false" />
		<!-- Default=xml; Specifies the file format for writing events. Currently supported: [xml, pb, json]
		Multiple values can be specified separated by commas (','). -->
		<param name="eventsFileFormat" value="xml" />
		<!-- Default=0. First Iteration of a simulation. -->
		<param name="firstIteration" value="0" />
		<!-- Default=1000. Last Iteration of a simulation. -->
		<param name="lastIteration" value="10" />
		<!-- Defines which mobility simulation will be used. Currently supported: qsim JDEQSim hermes 
		Depending on the chosen mobsim, you'll have to add additional config modules to configure the corresponding mobsim.
		For 'qsim', add a module 'qsim' to the config. -->
		<param name="mobsim" value="qsim" />
		<param name="outputDirectory" value="./output_6_bottleneck_2cap" />
		<!-- Possible values: failIfDirectoryExists, overwriteExistingFiles, deleteDirectoryIfExists -->
		<param name="overwriteFiles" value="deleteDirectoryIfExists" />
		<!-- The type of routing (least cost path) algorithm used, may have the values: [Dijkstra, AStarLandmarks, FastDijkstra, FastAStarLandmarks, SpeedyALT] -->
		<param name="routingAlgorithmType" value="AStarLandmarks" />
		<!-- An identifier for the current run which is used as prefix for output files and mentioned in output xml files etc. -->
		<param name="runId" value="null" />
		<!-- Comma-separated list of visualizer output file formats. `transims', `googleearth', and `otfvis'. -->
		<param name="snapshotFormat" value="" />
		<!-- iterationNumber % writeEventsInterval == 0 defines in which iterations events are written to a file. `0' disables events writing completely. -->
		<param name="writeEventsInterval" value="10" />
		<!-- iterationNumber % writePlansInterval == 0 defines (hopefully) in which iterations plans are written to a file. `0' disables plans writing completely.  Some plans in early iterations are always written -->
		<param name="writePlansInterval" value="10" />
		<!-- iterationNumber % writeSnapshotsInterval == 0 defines in which iterations snapshots are written to a file. `0' disables snapshots writing completely -->
		<param name="writeSnapshotsInterval" value="1" />
		<!-- iterationNumber % writeEventsInterval == 0 defines in which iterations trips CSV are written to a file. `0' disables trips writing completely. -->
		<param name="writeTripsInterval" value="10" />
	</module>
	<module name="counts" >
		<!-- Transport modes that will be respected for the counts comparison. 'car' is default, which includes also bussed from the pt simulation module. Use this parameter in combination with 'filterModes' = true! -->
		<param name="analyzedModes" value="car" />
		<!-- Specifies over how many iterations the link volumes should be averaged that are used for the counts comparison. Use 1 or 0 to only use the link volumes of a single iteration. This values cannot be larger than the value specified for writeCountsInterval -->
		<param name="averageCountsOverIterations" value="5" />
		<!-- factor by which to re-scale the simulated values.  necessary when simulation runs with something different from 100%.  needs to be adapted manually -->
		<param name="countsScaleFactor" value="1.0" />
		<!-- distance to distanceFilterCenterNode to include counting stations. The unit of distance is the Euclidean distance implied by the coordinate system -->
		<param name="distanceFilter" value="null" />
		<!-- node id for center node of distance filter -->
		<param name="distanceFilterCenterNode" value="null" />
		<!-- If true, link counts from legs performed on modes not included in the 'analyzedModes' parameter are ignored. -->
		<param name="filterModes" value="false" />
		<!-- The Coordinates Reference System in which the coordinates are expressed in the input file. At import, the coordinates will be converted to the coordinate system defined in "global", and willbe converted back at export. If not specified, no conversion happens. -->
		<param name="inputCRS" value="null" />
		<!-- input file name to counts package -->
		<param name="inputCountsFile" value="null" />
		<!-- possible values: `html', `kml', `txt', `all' -->
		<param name="outputformat" value="txt" />
		<!-- Specifies how often the counts comparison should be calculated and written. -->
		<param name="writeCountsInterval" value="10" />
	</module>
	<module name="facilities" >
		<!-- This defines how facilities should be created. Possible values: none fromFile setInScenario onePerActivityLinkInPlansFile onePerActivityLinkInPlansFileExceptWhenCoordinatesAreGiven onePerActivityLocationInPlansFile  -->
		<param name="facilitiesSource" value="none" />
		<!-- A prefix to be used for auto-generated IDs. -->
		<param name="idPrefix" value="f_auto_" />
		<!-- The Coordinates Reference System in which the coordinates are expressed in the input file. At import, the coordinates will be converted to the coordinate system defined in "global", and willbe converted back at export. If not specified, no conversion happens. -->
		<param name="inputCRS" value="null" />
		<param name="inputFacilitiesFile" value="null" />
		<param name="inputFacilityAttributesFile" value="null" />
		<param name="insistingOnUsingDeprecatedFacilitiesAttributeFile" value="false" />
	</module>
	<module name="global" >
		<param name="coordinateSystem" value="Atlantis" />
		<param name="defaultDelimiter" value=";" />
		<param name="insistingOnDeprecatedConfigVersion" value="true" />
		<!-- "global" number of threads.  This number is used, e.g., for replanning, but NOT in QSim.  This can typically be set to as many cores as you have available, or possibly even slightly more. -->
		<param name="numberOfThreads" value="2" />
		<param name="randomSeed" value="4711" />
	</module>
	<module name="hermes" >
		<!-- Simulation End Time -->
		<param name="endTime" value="30:00:00" />
		<param name="flowCapacityFactor" value="1.0" />
		<param name="mainMode" value="car" />
		<param name="storageCapacityFactor" value="1.0" />
		<!-- time in seconds.  Time after which the frontmost vehicle on a link is called `stuck' if it does not move. Set to Integer.MAX_VALUE to disable this behavior -->
		<param name="stuckTime" value="10" />
		<!-- treats PT as deterministic. PT vehicles will run with a steady speed. Should be used with separate network layers for PT and other network modes. -->
		<param name="useDeterministicPt" value="false" />
	</module>
	<module name="households" >
		<param name="inputFile" value="null" />
		<param name="inputHouseholdAttributesFile" value="null" />
		<param name="insistingOnUsingDeprecatedHouseholdsAttributeFile" value="false" />
	</module>
	<module name="linkStats" >
		<!-- Specifies over how many iterations the link volumes should be averaged that are used for the link statistics. Use 1 or 0 to only use the link volumes of a single iteration. This values cannot be larger than the value specified for writeLinkStatsInterval -->
		<param name="averageLinkStatsOverIterations" value="5" />
		<!-- Specifies how often the link stats should be calculated and written. Use 0 to disable the generation of link stats. -->
		<param name="writeLinkStatsInterval" value="10" />
	</module>
	<module name="network" >
		<!-- The Coordinates Reference System in which the coordinates are expressed in the input file. At import, the coordinates will be converted to the coordinate system defined in "global", and willbe converted back at export. If not specified, no conversion happens. -->
		<param name="inputCRS" value="null" />
		<param name="inputChangeEventsFile" value="null" />
		<param name="inputNetworkFile" value="network.xml" />
		<param name="laneDefinitionsFile" value="null" />
		<param name="timeVariantNetwork" value="false" />
	</module>
	<module name="parallelEventHandling" >
		<!-- Estimated number of events during mobsim run. An optional optimization hint for the framework. -->
		<param name="estimatedNumberOfEvents" value="null" />
		<!-- Size of the events Queue. Increase for very large scenarios -->
		<param name="eventsQueueSize" value="131072" />
		<!-- Number of threads for parallel events handler. _null_ means the framework decides by itself. 0 is currently not possible. -->
		<param name="numberOfThreads" value="null" />
		<!-- If enabled, each event handler is assigned to its own thread. Note that enabling this feature disabled the numberOfThreads option! This feature is still experimental! -->
		<param name="oneThreadPerHandler" value="false" />
		<!-- If enabled, it is ensured that all events that are created during a time step of the mobility simulation are processed before the next time step is simulated. E.g. neccessary when within-day replanning is used. -->
		<param name="synchronizeOnSimSteps" value="true" />
	</module>
	<module name="planCalcScore" >
		<!-- logit model scale parameter. default: 1.  Has name and default value for historical reasons (see Bryan Raney's phd thesis). -->
		<param name="BrainExpBeta" value="1.0" />
		<param name="PathSizeLogitBeta" value="1.0" />
		<!-- fraction of iterations at which MSA score averaging is started. The matsim theory department suggests to use this together with switching off choice set innovation (where a similar switch exists), but it has not been tested yet. -->
		<param name="fractionOfIterationsToStartScoreMSA" value="null" />
		<!-- new_score = (1-learningRate)*old_score + learningRate * score_from_mobsim.  learning rates close to zero emulate score averaging, but slow down initial convergence -->
		<param name="learningRate" value="1.0" />
		<!-- There used to be a plateau between duration=0 and duration=zeroUtilityDuration. This caused durations to evolve to zero once they were below zeroUtilityDuration, causing problems.  Only use this switch if you need to be backwards compatible with some old results.  (changed nov'13) -->
		<param name="usingOldScoringBelowZeroUtilityDuration" value="false" />
		<!-- write a plans file in each iteration directory which contains what each agent actually did, and the score it received. -->
		<param name="writeExperiencedPlans" value="false" />
		<parameterset type="scoringParameters" >
			<param name="earlyDeparture" value="-0.0" />
			<param name="lateArrival" value="-18.0" />
			<param name="marginalUtilityOfMoney" value="1.0" />
			<param name="performing" value="6.0" />
			<param name="subpopulation" value="null" />
			<param name="utilityOfLineSwitch" value="-1.0" />
			<param name="waiting" value="-0.0" />
			<param name="waitingPt" value="-6.0" />
			<parameterset type="activityParams" >
				<param name="activityType" value="dummy" />
				<param name="closingTime" value="undefined" />
				<param name="earliestEndTime" value="undefined" />
				<param name="latestStartTime" value="undefined" />
				<param name="minimalDuration" value="undefined" />
				<param name="openingTime" value="undefined" />
				<param name="priority" value="1.0" />
				<param name="scoringThisActivityAtAll" value="true" />
				<!-- typical duration of activity.  needs to be defined and non-zero.  in sec. -->
				<param name="typicalDuration" value="02:00:00" />
				<!-- method to compute score at typical duration.  Options: | uniform | relative | Use uniform for backwards compatibility (all activities same score; higher proba to drop long acts). -->
				<param name="typicalDurationScoreComputation" value="relative" />
			</parameterset>
			<parameterset type="activityParams" >
				<param name="activityType" value="car interaction" />
				<param name="closingTime" value="undefined" />
				<param name="earliestEndTime" value="undefined" />
				<param name="latestStartTime" value="undefined" />
				<param name="minimalDuration" value="undefined" />
				<param name="openingTime" value="undefined" />
				<param name="priority" value="1.0" />
				<param name="scoringThisActivityAtAll" value="false" />
				<param name="typicalDuration" value="undefined" />
				<param name="typicalDurationScoreComputation" value="relative" />
			</parameterset>
			<parameterset type="activityParams" >
				<param name="activityType" value="pt interaction" />
				<param name="closingTime" value="undefined" />
				<param name="earliestEndTime" value="undefined" />
				<param name="latestStartTime" value="undefined" />
				<param name="minimalDuration" value="undefined" />
				<param name="openingTime" value="undefined" />
				<param name="priority" value="1.0" />
				<param name="scoringThisActivityAtAll" value="false" />
				<param name="typicalDuration" value="undefined" />
				<param name="typicalDurationScoreComputation" value="relative" />
			</parameterset>
			<parameterset type="activityParams" >
				<param name="activityType" value="bike interaction" />
				<param name="closingTime" value="undefined" />
				<param name="earliestEndTime" value="undefined" />
				<param name="latestStartTime" value="undefined" />
				<param name="minimalDuration" value="undefined" />
				<param name="openingTime" value="undefined" />
				<param name="priority" value="1.0" />
				<param name="scoringThisActivityAtAll" value="false" />
				<param name="typicalDuration" value="undefined" />
				<param name="typicalDurationScoreComputation" value="relative" />
			</parameterset>
			<parameterset type="activityParams" >
				<param name="activityType" value="drt interaction" />
				<param name="closingTime" value="undefined" />
				<param name="earliestEndTime" value="undefined" />
				<param name="latestStartTime" value="undefined" />
				<param name="minimalDuration" value="undefined" />
				<param name="openingTime" value="undefined" />
				<param name="priority" value="1.0" />
				<param name="scoringThisActivityAtAll" value="false" />
				<param name="typicalDuration" value="undefined" />
				<param name="typicalDurationScoreComputation" value="relative" />
			</parameterset>
			<parameterset type="activityParams" >
				<param name="activityType" value="taxi interaction" />
				<param name="closingTime" value="undefined" />
				<param name="earliestEndTime" value="undefined" />
				<param name="latestStartTime" value="undefined" />
				<param name="minimalDuration" value="undefined" />
				<param name="openingTime" value="undefined" />
				<param name="priority" value="1.0" />
				<param name="scoringThisActivityAtAll" value="false" />
				<param name="typicalDuration" value="undefined" />
				<param name="typicalDurationScoreComputation" value="relative" />
			</parameterset>
			<parameterset type="activityParams" >
				<param name="activityType" value="other interaction" />
				<param name="closingTime" value="undefined" />
				<param name="earliestEndTime" value="undefined" />
				<param name="latestStartTime" value="undefined" />
				<param name="minimalDuration" value="undefined" />
				<param name="openingTime" value="undefined" />
				<param name="priority" value="1.0" />
				<param name="scoringThisActivityAtAll" value="false" />
				<param name="typicalDuration" value="undefined" />
				<param name="typicalDurationScoreComputation" value="relative" />
			</parameterset>
			<parameterset type="activityParams" >
				<param name="activityType" value="walk interaction" />
				<param name="closingTime" value="undefined" />
				<param name="earliestEndTime" value="undefined" />
				<param name="latestStartTime" value="undefined" />
				<param name="minimalDuration" value="undefined" />
				<param name="openingTime" value="undefined" />
				<param name="priority" value="1.0" />
				<param name="scoringThisActivityAtAll" value="false" />
				<param name="typicalDuration" value="undefined" />
				<param name="typicalDurationScoreComputation" value="relative" />
			</parameterset>
			<parameterset type="activityParams" >
				<param name="activityType" value="h" />
				<param name="closingTime" value="undefined" />
				<param name="earliestEndTime" value="undefined" />
				<param name="latestStartTime" value="undefined" />
				<param name="minimalDuration" value="08:00:00" />
				<param name="openingTime" value="undefined" />
				<param name="priority" value="1.0" />
				<param name="scoringThisActivityAtAll" value="true" />
				<param name="typicalDuration" value="12:00:00" />
				<param name="typicalDurationScoreComputation" value="relative" />
			</parameterset>
			<parameterset type="activityParams" >
				<param name="activityType" value="w" />
				<param name="closingTime" value="18:00:00" />
				<param name="earliestEndTime" value="undefined" />
				<param name="latestStartTime" value="09:00:00" />
				<param name="minimalDuration" value="06:00:00" />
				<param name="openingTime" value="07:00:00" />
				<param name="priority" value="1.0" />
				<param name="scoringThisActivityAtAll" value="true" />
				<param name="typicalDuration" value="08:00:00" />
				<param name="typicalDurationScoreComputation" value="relative" />
			</parameterset>
			<parameterset type="activityParams" >
				<param name="activityType" value="ride interaction" />
				<param name="closingTime" value="undefined" />
				<param name="earliestEndTime" value="undefined" />
				<param name="latestStartTime" value="undefined" />
				<param name="minimalDuration" value="undefined" />
				<param name="openingTime" value="undefined" />
				<param name="priority" value="1.0" />
				<param name="scoringThisActivityAtAll" value="false" />
				<param name="typicalDuration" value="undefined" />
				<param name="typicalDurationScoreComputation" value="relative" />
			</parameterset>
			<parameterset type="activityParams" >
				<param name="activityType" value="bicycle interaction" />
				<param name="closingTime" value="undefined" />
				<param name="earliestEndTime" value="undefined" />
				<param name="latestStartTime" value="undefined" />
				<param name="minimalDuration" value="undefined" />
				<param name="openingTime" value="undefined" />
				<param name="priority" value="1.0" />
				<param name="scoringThisActivityAtAll" value="false" />
				<param name="typicalDuration" value="undefined" />
				<param name="typicalDurationScoreComputation" value="relative" />
			</parameterset>
			<parameterset type="modeParams" >
				<!-- [utils] alternative-specific constant.  Normally per trip, but that is probably buggy for multi-leg trips. -->
				<param name="constant" value="0.0" />
				<!-- [money] daily monetary constant. default=0 to be backwards compatible -->
				<param name="dailyMonetaryConstant" value="0.0" />
				<!-- [utils] daily utility constant. default=0 to be backwards compatible -->
				<param name="dailyUtilityConstant" value="0.0" />
				<!-- [utils/m] utility of traveling (e.g. walking or driving) per m, normally negative.  this is on top of the time (dis)utility. -->
				<param name="marginalUtilityOfDistance_util_m" value="0.0" />
				<!-- [utils/hr] additional marginal utility of traveling.  normally negative.  this comes on top of the opportunity cost of time -->
				<param name="marginalUtilityOfTraveling_util_hr" value="-6.0" />
				<param name="mode" value="car" />
				<!-- [unit_of_money/m] conversion of distance into money. Normally negative. -->
				<param name="monetaryDistanceRate" value="0.0" />
			</parameterset>
			<parameterset type="modeParams" >
				<param name="constant" value="0.0" />
				<param name="dailyMonetaryConstant" value="0.0" />
				<param name="dailyUtilityConstant" value="0.0" />
				<param name="marginalUtilityOfDistance_util_m" value="0.0" />
				<param name="marginalUtilityOfTraveling_util_hr" value="-6.0" />
				<param name="mode" value="pt" />
				<param name="monetaryDistanceRate" value="0.0" />
			</parameterset>
			<parameterset type="modeParams" >
				<param name="constant" value="0.0" />
				<param name="dailyMonetaryConstant" value="0.0" />
				<param name="dailyUtilityConstant" value="0.0" />
				<param name="marginalUtilityOfDistance_util_m" value="0.0" />
				<param name="marginalUtilityOfTraveling_util_hr" value="-6.0" />
				<param name="mode" value="walk" />
				<param name="monetaryDistanceRate" value="0.0" />
			</parameterset>
			<parameterset type="modeParams" >
				<param name="constant" value="0.0" />
				<param name="dailyMonetaryConstant" value="0.0" />
				<param name="dailyUtilityConstant" value="0.0" />
				<param name="marginalUtilityOfDistance_util_m" value="0.0" />
				<param name="marginalUtilityOfTraveling_util_hr" value="-6.0" />
				<param name="mode" value="bike" />
				<param name="monetaryDistanceRate" value="0.0" />
			</parameterset>
			<parameterset type="modeParams" >
				<param name="constant" value="0.0" />
				<param name="dailyMonetaryConstant" value="0.0" />
				<param name="dailyUtilityConstant" value="0.0" />
				<param name="marginalUtilityOfDistance_util_m" value="0.0" />
				<param name="marginalUtilityOfTraveling_util_hr" value="-6.0" />
				<param name="mode" value="ride" />
				<param name="monetaryDistanceRate" value="0.0" />
			</parameterset>
			<parameterset type="modeParams" >
				<param name="constant" value="0.0" />
				<param name="dailyMonetaryConstant" value="0.0" />
				<param name="dailyUtilityConstant" value="0.0" />
				<param name="marginalUtilityOfDistance_util_m" value="0.0" />
				<param name="marginalUtilityOfTraveling_util_hr" value="-6.0" />
				<param name="mode" value="other" />
				<param name="monetaryDistanceRate" value="0.0" />
			</parameterset>
			<parameterset type="modeParams" >
				<param name="constant" value="0.0" />
				<param name="dailyMonetaryConstant" value="0.0" />
				<param name="dailyUtilityConstant" value="0.0" />
				<param name="marginalUtilityOfDistance_util_m" value="0.0" />
				<param name="marginalUtilityOfTraveling_util_hr" value="-6.0" />
				<param name="mode" value="bicycle" />
				<param name="monetaryDistanceRate" value="0.0" />
			</parameterset>
		</parameterset>
	</module>
	<module name="plans" >
		<!-- String: minOfDurationAndEndTime tryEndTimeThenDuration endTimeOnly. Anything besides minOfDurationAndEndTime will internally use a different (simpler) version of the TimeAllocationMutator. -->
		<param name="activityDurationInterpretation" value="tryEndTimeThenDuration" />
		<!-- Possible values: reject, useMainModeIdentifier -->
		<param name="handlingOfPlansWithoutRoutingMode" value="reject" />
		<!-- The Coordinates Reference System in which the coordinates are expressed in the input file. At import, the coordinates will be converted to the coordinate system defined in "global", and willbe converted back at export. If not specified, no conversion happens. -->
		<param name="inputCRS" value="null" />
		<param name="inputPersonAttributesFile" value="null" />
		<param name="inputPlansFile" value="plans100.xml" />
		<param name="insistingOnUsingDeprecatedPersonAttributeFile" value="false" />
		<!-- Defines how routes are stored in memory. Currently supported: LinkNetworkRoute, CompressedNetworkRoute. -->
		<param name="networkRouteType" value="LinkNetworkRoute" />
		<!-- (not tested) will remove plan attributes that are presumably not used, such as activityStartTime. default=false. Use with Caution! -->
		<param name="removingUnnecessaryPlanAttributes" value="false" />
	</module>
	<module name="planscalcroute" >
		<!-- Some typical teleportation routing params are set by default, such as for walk and bike.  Setting this switch to "true" will clear them.  Note that this will also clear settings for helper modes such as for non_network_walk -->
		<param name="clearDefaultTeleportedModeParams" value="false" />
		<!-- All the modes for which the router is supposed to generate network routes (like car) -->
		<param name="networkModes" value="car" />
		<!-- strength of the randomness for the utility of money in routing under toll.  Leads to Pareto-optimal route with randomly drawn money-vs-other-attributes tradeoff. Technically the width parameter of a log-normal distribution. 3.0 seems to be a good value.  -->
		<param name="routingRandomness" value="3.0" />
		<parameterset type="teleportedModeParameters" >
			<param name="beelineDistanceFactor" value="1.3" />
			<param name="mode" value="bike" />
			<!-- Free-speed factor for a teleported mode. Travel time = teleportedModeFreespeedFactor * <freespeed car travel time>. Insert a line like this for every such mode. Please do not set teleportedModeFreespeedFactor as well as teleportedModeSpeed for the same mode, but if you do, +teleportedModeFreespeedFactor wins over teleportedModeSpeed. -->
			<param name="teleportedModeFreespeedFactor" value="null" />
			<!-- Speed for a teleported mode. Travel time = (<beeline distance> * beelineDistanceFactor) / teleportedModeSpeed. Insert a line like this for every such mode. -->
			<param name="teleportedModeSpeed" value="4.166666666666667" />
		</parameterset>
		<parameterset type="teleportedModeParameters" >
			<param name="beelineDistanceFactor" value="1.3" />
			<param name="mode" value="walk" />
			<param name="teleportedModeFreespeedFactor" value="null" />
			<param name="teleportedModeSpeed" value="0.8333333333333333" />
		</parameterset>
		<parameterset type="teleportedModeParameters" >
			<param name="beelineDistanceFactor" value="1.3" />
			<param name="mode" value="non_network_walk" />
			<param name="teleportedModeFreespeedFactor" value="null" />
			<param name="teleportedModeSpeed" value="0.8333333333333333" />
		</parameterset>
		<parameterset type="teleportedModeParameters" >
			<param name="beelineDistanceFactor" value="1.3" />
			<param name="mode" value="ride" />
			<param name="teleportedModeFreespeedFactor" value="1.0" />
			<param name="teleportedModeSpeed" value="null" />
		</parameterset>
		<parameterset type="teleportedModeParameters" >
			<param name="beelineDistanceFactor" value="1.3" />
			<param name="mode" value="pt" />
			<param name="teleportedModeFreespeedFactor" value="2.0" />
			<param name="teleportedModeSpeed" value="null" />
		</parameterset>
	</module>
	<module name="ptCounts" >
		<!-- factor by which to re-scale the simulated values.  necessary when simulation runs with something different from 100%.  needs to be adapted manually -->
		<param name="countsScaleFactor" value="1.0" />
		<!-- distance to distanceFilterCenterNode to include counting stations. The unit of distance is the Euclidean distance implied by the coordinate system -->
		<param name="distanceFilter" value="null" />
		<!-- node id for center node of distance filter -->
		<param name="distanceFilterCenterNode" value="null" />
		<!-- input file containing the alighting (getting off) counts for pt -->
		<param name="inputAlightCountsFile" value="null" />
		<!-- input file containing the boarding (getting on) counts for pt -->
		<param name="inputBoardCountsFile" value="null" />
		<!-- input file containing the occupancy counts for pt -->
		<param name="inputOccupancyCountsFile" value="null" />
		<!-- possible values: `html', `kml', `txt', `all' -->
		<param name="outputformat" value="null" />
		<!-- every how many iterations (starting with 0) counts comparisons are generated -->
		<param name="ptCountsInterval" value="10" />
	</module>
	<module name="qsim" >
		<param name="endTime" value="undefined" />
		<param name="flowCapacityFactor" value="1.0" />
		<!-- decides if waiting vehicles enter the network after or before the already driving vehicles were moved. Default: false -->
		<param name="insertingWaitingVehiclesBeforeDrivingVehicles" value="true" />
		<!-- If link dynamics is set as SeepageQ, set to false if all seep modes should perform seepage. Default is true (better option). -->
		<param name="isRestrictingSeepage" value="true" />
		<!-- If link dynamics is set as SeepageQ, set to true if seep mode do not consumes any space on the link. Default is false. -->
		<param name="isSeepModeStorageFree" value="false" />
		<!-- default: FIFO; options: FIFO PassingQ SeepageQ -->
		<param name="linkDynamics" value="FIFO" />
		<!-- The (initial) width of the links of the network. Use positive floating point values. This is used only for visualisation. -->
		<param name="linkWidth" value="30.0" />
		<!-- [comma-separated list] Defines which modes are congested modes. Technically, these are the modes that the departure handler of the netsimengine handles.  Effective cell size, effective lane width, flow capacity factor, and storage capacity factor need to be set with diligence.  Need to be vehicular modes to make sense. -->
		<param name="mainMode" value="car" />
		<!-- Shortens a link in the visualization, i.e. its start and end point are moved into towards the center. Does not affect traffic flow.  -->
		<param name="nodeOffset" value="0.0" />
		<!-- Number of threads used for the QSim.  Note that this setting is independent from the "global" threads setting.  In contrast to earlier versions, the non-parallel special version is no longer there. -->
		<param name="numberOfThreads" value="1" />
		<!-- Boolean. `true': stuck vehicles are removed, aborting the plan; `false': stuck vehicles are forced into the next link. `false' is probably the better choice. -->
		<param name="removeStuckVehicles" value="false" />
		<!-- If link dynamics is set as SeepageQ, set a seep mode. Default is bike. -->
		<param name="seepMode" value="bike" />
		<!-- Possible values: minOfEndtimeAndMobsimFinished, onlyUseEndtime -->
		<param name="simEndtimeInterpretation" value="null" />
		<!-- Options: maxOfStarttimeAndEarliestActivityEnd onlyUseStarttime  -->
		<param name="simStarttimeInterpretation" value="maxOfStarttimeAndEarliestActivityEnd" />
		<!-- snapshotStyle. One of: equiDist queue withHoles withHolesAndShowHoles kinematicWaves  -->
		<param name="snapshotStyle" value="queue" />
		<param name="snapshotperiod" value="00:00:00" />
		<param name="startTime" value="undefined" />
		<param name="storageCapacityFactor" value="1.0" />
		<!-- time in seconds.  Time after which the frontmost vehicle on a link is called `stuck' if it does not move. -->
		<param name="stuckTime" value="10.0" />
		<param name="timeStepSize" value="00:00:01" />
		<!-- options: queue withHoles kinematicWaves  -->
		<param name="trafficDynamics" value="queue" />
		<!-- Set this parameter to true if lanes should be used, false if not. -->
		<param name="useLanes" value="false" />
		<!-- If a route does not reference a vehicle, agents will use the vehicle with the same id as their own. -->
		<param name="usePersonIdForMissingVehicleId" value="true" />
		<!-- If false, the qsim accumulates fractional flows up to one flow unit in every time step.  If true, flows are updated only if an agent wants to enter the link or an agent is added to buffer. Default is true. -->
		<param name="usingFastCapacityUpdate" value="true" />
		<!-- Defines what happens if an agent wants to depart, but the specified vehicle is not available. One of: teleport wait exception  -->
		<param name="vehicleBehavior" value="wait" />
		<!-- If vehicles should all be the same default vehicle, or come from the vehicles file, or something else.  Possible values:  defaultVehicle modeVehicleTypesFromVehiclesData fromVehiclesData -->
		<param name="vehiclesSource" value="modeVehicleTypesFromVehiclesData" />
	</module>
	<module name="strategy" >
		<!-- the external executable will be called with a config file as argument.  This is the pathname to a possible skeleton config, to which additional information will be added.  Can be null. -->
		<param name="ExternalExeConfigTemplate" value="null" />
		<!-- time out value (in seconds) after which matsim will consider the external strategy as failed -->
		<param name="ExternalExeTimeOut" value="3600" />
		<!-- root directory for temporary files generated by the external executable. Provided as a service; I don't think this is used by MATSim. -->
		<param name="ExternalExeTmpFileRootDir" value="null" />
		<!-- fraction of iterations where innovative strategies are switched off.  Something like 0.8 should be good.  E.g. if you run from iteration 400 to iteration 500, innovation is switched off at iteration 480 -->
		<param name="fractionOfIterationsToDisableInnovation" value="Infinity" />
		<!-- maximum number of plans per agent.  ``0'' means ``infinity''.  Currently (2010), ``5'' is a good number -->
		<param name="maxAgentPlanMemorySize" value="5" />
		<!-- strategyName of PlanSelector for plans removal.  Possible defaults: WorstPlanSelector SelectRandom SelectExpBetaForRemoval ChangeExpBetaForRemoval PathSizeLogitSelectorForRemoval . The current default, WorstPlanSelector is not a good choice from a discrete choice theoretical perspective. Alternatives, however, have not been systematically tested. kai, feb'12 -->
		<param name="planSelectorForRemoval" value="WorstPlanSelector" />
		<parameterset type="strategysettings" >
			<!-- iteration after which strategy will be disabled.  most useful for ``innovative'' strategies (new routes, new times, ...). Normally, better use fractionOfIterationsToDisableInnovation -->
			<param name="disableAfterIteration" value="-1" />
			<!-- path to external executable (if applicable) -->
			<param name="executionPath" value="null" />
			<!-- strategyName of strategy.  Possible default names: SelectRandom BestScore KeepLastSelected ChangeExpBeta SelectExpBeta SelectPathSizeLogit      (selectors), ReRouteTimeAllocationMutatorTimeAllocationMutator_ReRouteChangeSingleTripModeChangeTripModeSubtourModeChoice (innovative strategies). -->
			<param name="strategyName" value="BestScore" />
			<!-- subpopulation to which the strategy applies. "null" refers to the default population, that is, the set of persons for which no explicit subpopulation is defined (ie no subpopulation attribute) -->
			<param name="subpopulation" value="null" />
			<!-- weight of a strategy: for each agent, a strategy will be selected with a probability proportional to its weight -->
			<param name="weight" value="0.9" />
		</parameterset>
		<parameterset type="strategysettings" >
			<param name="disableAfterIteration" value="-1" />
			<param name="executionPath" value="null" />
			<param name="strategyName" value="ReRoute" />
			<param name="subpopulation" value="null" />
			<param name="weight" value="0.1" />
		</parameterset>
	</module>
	<module name="subtourModeChoice" >
		<!-- Only for backwards compatibility.  Defines if only trips from modes list should change mode, or all trips.  Options: fromAllModesToSpecifiedModes fromSpecifiedModesToSpecifiedModes  -->
		<param name="behavior" value="fromSpecifiedModesToSpecifiedModes" />
		<!-- Defines the chain-based modes, seperated by commas -->
		<param name="chainBasedModes" value="car,bike" />
		<!-- Defines whether car availability must be considered or not. A agent has no car only if it has no license, or never access to a car -->
		<param name="considerCarAvailability" value="false" />
		<!-- Defines all the modes available, including chain-based modes, seperated by commas -->
		<param name="modes" value="car,pt,bike,walk" />
	</module>
	<module name="transit" >
		<!-- The Coordinates Reference System in which the coordinates are expressed in the input file. At import, the coordinates will be converted to the coordinate system defined in "global", and willbe converted back at export. If not specified, no conversion happens. -->
		<param name="inputScheduleCRS" value="null" />
		<param name="insistingOnUsingDeprecatedAttributeFiles" value="false" />
		<!-- The type of transit routing algorithm used, may have the values: [DijkstraBased, SwissRailRaptor] -->
		<param name="routingAlgorithmType" value="SwissRailRaptor" />
		<!-- Optional input file containing additional attributes for transit lines, stored as ObjectAttributes. -->
		<param name="transitLinesAttributesFile" value="null" />
		<!-- Comma-separated list of transportation modes that are handled as transit. Defaults to 'pt'. -->
		<param name="transitModes" value="pt" />
		<!-- Input file containing the transit schedule to be simulated. -->
		<param name="transitScheduleFile" value="null" />
		<!-- Optional input file containing additional attributes for transit stop facilities, stored as ObjectAttributes. -->
		<param name="transitStopsAttributesFile" value="null" />
		<!-- Set this parameter to true if transit should be simulated, false if not. -->
		<param name="useTransit" value="false" />
		<param name="usingTransitInMobsim" value="true" />
		<!-- Input file containing the vehicles used by the departures in the transit schedule. -->
		<param name="vehiclesFile" value="null" />
	</module>
	<module name="transitRouter" >
		<!-- additional time the router allocates when a line switch happens. Can be interpreted as a 'safety' time that agents need to safely transfer from one line to another -->
		<param name="additionalTransferTime" value="0.0" />
		<!-- Factor with which direct walk generalized cost is multiplied before it is compared to the pt generalized cost.  Set to a very high value to reduce direct walk results. -->
		<param name="directWalkFactor" value="1.0" />
		<!-- step size to increase searchRadius if no stops are found -->
		<param name="extensionRadius" value="200.0" />
		<!-- maximum beeline distance between stops that agents could transfer to by walking -->
		<param name="maxBeelineWalkConnectionDistance" value="100.0" />
		<!-- the radius in which stop locations are searched, given a start or target coordinate -->
		<param name="searchRadius" value="1000.0" />
	</module>
	<module name="travelTimeCalculator" >
		<!-- (only for backwards compatibility; only used if separateModes==false && + filterModes==true)  Transport modes that will be respected by the travel time collector. 'car' is default which includes also buses from the pt simulation module. -->
		<param name="analyzedModes" value="car" />
		<param name="calculateLinkToLinkTravelTimes" value="false" />
		<param name="calculateLinkTravelTimes" value="true" />
		<!-- (only for backwards compatiblity; only used if separateModes==false)  Only modes included in analyzedModes are included. -->
		<param name="filterModes" value="false" />
		<!-- The lenght (in sec) of the time period that is splited into time bins; an additional time bin is created to aggregate all travel times collected after maxTime -->
		<param name="maxTime" value="108000" />
		<!-- (only for backwards compatibility) If false, link travel times are measured and aggregated over all vehicles using the link. -->
		<param name="separateModes" value="true" />
		<!-- How to deal with congested time bins that have no link entry events. `optimistic' assumes free speed (too optimistic); 'experimental_LastMile' is experimental and probably too pessimistic. -->
		<param name="travelTimeAggregator" value="optimistic" />
		<!-- The size of the time bin (in sec) into which the link travel times are aggregated for the router -->
		<param name="travelTimeBinSize" value="900" />
		<!-- possible values: TravelTimeCalculatorArray TravelTimeCalculatorHashMap  -->
		<param name="travelTimeCalculator" value="TravelTimeCalculatorArray" />
		<!-- How to deal with link entry times at different positions during the time bin. Currently supported: average, linearinterpolation -->
		<param name="travelTimeGetter" value="average" />
	</module>
	<module name="vehicles" >
		<param name="vehiclesFile" value="mode-vehicles.xml" />
	</module>
	<module name="vspExperimental" >
		<!-- (do not use except of you have to) There was a problem with pt interaction scoring.  Some people solved it by overwriting the parameters of the pt interaction activity type.  Doing this now throws an Exception.  If you still insist on doing this, set the following to true. -->
		<param name="isAbleToOverwritePtInteractionParams" value="false" />
		<param name="isGeneratingBoardingDeniedEvent" value="false" />
		<!-- if an approximation of the opportunity cost of time is included into the radius calculation for location choice.`true' will be faster, but it is an approximation.  Default is `true'; `false' is available for backwards compatibility. -->
		<param name="isUsingOpportunityCostOfTimeForLocationChoice" value="true" />
		<param name="logitScaleParamForPlansRemoval" value="1.0" />
		<!-- Options: | ignore | info | warn | abort | .  When violating VSP defaults, this results in nothing, logfile infos, logfile warnings, or aborts.  Members of VSP should use `abort' or talk to kai. -->
		<param name="vspDefaultsCheckingLevel" value="ignore" />
		<!-- if true then writes output_events in output directory.  default is `false'. Will only work when lastIteration is multiple of events writing interval -->
		<param name="writingOutputEvents" value="true" />
	</module>

</config>

2022-02-10T12:29:20,798  INFO ControlerUtils:84 Complete config dump done.
2022-02-10T12:29:20,798  INFO ControlerUtils:85 Checking consistency of config...
2022-02-10T12:29:20,799  INFO VspConfigConsistencyCheckerImpl:59 NOT running vsp config consistency check because vsp defaults checking level is set to IGNORE
2022-02-10T12:29:20,804  INFO ControlerUtils:87 Checking consistency of config done.
2022-02-10T12:29:20,809  WARN PrepareForSimImpl:222 'usePersonIdForMissingVehicleId' is deprecated. It will be removed soon.
2022-02-10T12:29:20,818  INFO Counter:69 [VehiclesImpl] added vehicle # 1
2022-02-10T12:29:20,818  INFO Counter:69 [VehiclesImpl] added vehicle # 2
2022-02-10T12:29:20,818  INFO Counter:69 [VehiclesImpl] added vehicle # 4
2022-02-10T12:29:20,818  INFO Counter:69 [VehiclesImpl] added vehicle # 8
2022-02-10T12:29:20,841  INFO PreProcessDijkstra:118 nodes in dead ends: 0 (total nodes: 7). Done in 2 ms
2022-02-10T12:29:20,842  INFO PreProcessLandmarks:112 Putting landmarks on network...
2022-02-10T12:29:20,845  INFO LandmarkerPieSlices:96 Filling sectors...
2022-02-10T12:29:20,848  INFO LandmarkerPieSlices:163 There is no node in sector 0!
2022-02-10T12:29:20,848  INFO LandmarkerPieSlices:163 There is no node in sector 1!
2022-02-10T12:29:20,848  INFO LandmarkerPieSlices:163 There is no node in sector 2!
2022-02-10T12:29:20,848  INFO LandmarkerPieSlices:163 There is no node in sector 3!
2022-02-10T12:29:20,848  INFO LandmarkerPieSlices:163 There is no node in sector 4!
2022-02-10T12:29:20,849  INFO LandmarkerPieSlices:163 There is no node in sector 5!
2022-02-10T12:29:20,849  INFO LandmarkerPieSlices:163 There is no node in sector 6!
2022-02-10T12:29:20,849  INFO LandmarkerPieSlices:163 There is no node in sector 7!
2022-02-10T12:29:20,849  INFO LandmarkerPieSlices:163 There is no node in sector 8!
2022-02-10T12:29:20,849  INFO LandmarkerPieSlices:163 There is no node in sector 9!
2022-02-10T12:29:20,849  INFO LandmarkerPieSlices:163 There is no node in sector 10!
2022-02-10T12:29:20,849  INFO LandmarkerPieSlices:163 There is no node in sector 11!
2022-02-10T12:29:20,849  INFO LandmarkerPieSlices:163 There is no node in sector 12!
2022-02-10T12:29:20,849  INFO LandmarkerPieSlices:163 There is no node in sector 13!
2022-02-10T12:29:20,849  INFO LandmarkerPieSlices:163 There is no node in sector 14!
2022-02-10T12:29:20,852  INFO LandmarkerPieSlices:100 Reducing number of landmarks from 16 to 1...
2022-02-10T12:29:20,852  INFO LandmarkerPieSlices:107 Refining landmarks...
2022-02-10T12:29:20,853  INFO LandmarkerPieSlices:109 done
2022-02-10T12:29:20,853  INFO PreProcessLandmarks:115 done in 10 ms
2022-02-10T12:29:20,853  INFO PreProcessLandmarks:117 Initializing landmarks data
2022-02-10T12:29:20,853  INFO PreProcessLandmarks:129 Calculating distance from each node to each of the 16 landmarks using 2 threads...
2022-02-10T12:29:20,859  INFO PreProcessLandmarks:139 wait for landmarks Calculator to finish...
2022-02-10T12:29:20,862  INFO PreProcessLandmarks:163 done in 9 ms
2022-02-10T12:29:20,885  INFO NetworkImpl:163  node # 1
2022-02-10T12:29:20,885  INFO NetworkImpl:163  node # 4
2022-02-10T12:29:20,886  INFO NetworkImpl:159  link # 1
2022-02-10T12:29:20,886  INFO NetworkImpl:159  link # 4
2022-02-10T12:29:20,889  WARN RandomizingTimeDistanceTravelDisutilityFactory:112 There will be no routing randomness. The randomization of the travel disutility requires the monetary distance rate to be different than zero. Continuing anyway.
2022-02-10T12:29:20,890  WARN RandomizingTimeDistanceTravelDisutilityFactory:117 There will be no routing randomness. The randomization of the travel disutility requires the travel time cost rate to be different than zero. Continuing anyway.
2022-02-10T12:29:20,893  INFO RandomizingTimeDistanceTravelDisutilityFactory:85  sigma: 3.0; resulting normalization: 0.011108996538242306
2022-02-10T12:29:20,895  INFO PreProcessDijkstra:118 nodes in dead ends: 0 (total nodes: 7). Done in 0 ms
2022-02-10T12:29:20,896  INFO PreProcessLandmarks:112 Putting landmarks on network...
2022-02-10T12:29:20,896  INFO LandmarkerPieSlices:96 Filling sectors...
2022-02-10T12:29:20,898  INFO LandmarkerPieSlices:163 There is no node in sector 0!
2022-02-10T12:29:20,899  INFO LandmarkerPieSlices:163 There is no node in sector 1!
2022-02-10T12:29:20,899  INFO LandmarkerPieSlices:163 There is no node in sector 2!
2022-02-10T12:29:20,899  INFO LandmarkerPieSlices:163 There is no node in sector 3!
2022-02-10T12:29:20,899  INFO LandmarkerPieSlices:163 There is no node in sector 4!
2022-02-10T12:29:20,900  INFO LandmarkerPieSlices:163 There is no node in sector 5!
2022-02-10T12:29:20,900  INFO LandmarkerPieSlices:163 There is no node in sector 6!
2022-02-10T12:29:20,900  INFO LandmarkerPieSlices:163 There is no node in sector 7!
2022-02-10T12:29:20,900  INFO LandmarkerPieSlices:163 There is no node in sector 8!
2022-02-10T12:29:20,900  INFO LandmarkerPieSlices:163 There is no node in sector 9!
2022-02-10T12:29:20,900  INFO LandmarkerPieSlices:163 There is no node in sector 10!
2022-02-10T12:29:20,900  INFO LandmarkerPieSlices:163 There is no node in sector 11!
2022-02-10T12:29:20,900  INFO LandmarkerPieSlices:163 There is no node in sector 12!
2022-02-10T12:29:20,900  INFO LandmarkerPieSlices:163 There is no node in sector 13!
2022-02-10T12:29:20,900  INFO LandmarkerPieSlices:163 There is no node in sector 14!
2022-02-10T12:29:20,900  INFO LandmarkerPieSlices:100 Reducing number of landmarks from 16 to 1...
2022-02-10T12:29:20,900  INFO LandmarkerPieSlices:107 Refining landmarks...
2022-02-10T12:29:20,900  INFO LandmarkerPieSlices:109 done
2022-02-10T12:29:20,900  INFO PreProcessLandmarks:115 done in 4 ms
2022-02-10T12:29:20,900  INFO PreProcessLandmarks:117 Initializing landmarks data
2022-02-10T12:29:20,900  INFO PreProcessLandmarks:129 Calculating distance from each node to each of the 16 landmarks using 2 threads...
2022-02-10T12:29:20,903  INFO PreProcessLandmarks:139 wait for landmarks Calculator to finish...
2022-02-10T12:29:20,903  INFO PreProcessLandmarks:163 done in 3 ms
2022-02-10T12:29:20,912  INFO RandomizingTimeDistanceTravelDisutilityFactory:85  sigma: 3.0; resulting normalization: 0.011108996538242306
2022-02-10T12:29:20,931  INFO Counter:69 [PersonPrepareForSim] handled person # 1
2022-02-10T12:29:20,931  INFO Counter:69 [PersonPrepareForSim] handled person # 2
2022-02-10T12:29:20,933  INFO Counter:69 [PersonPrepareForSim] handled person # 4
2022-02-10T12:29:20,934  INFO Counter:69 [PersonPrepareForSim] handled person # 8
2022-02-10T12:29:20,935  INFO Counter:74 [PersonPrepareForSim] handled person # 10
2022-02-10T12:29:20,936  INFO AbstractController:133 ###################################################
2022-02-10T12:29:20,936  INFO AbstractController:134 ### ITERATION 0 BEGINS
2022-02-10T12:29:20,937  INFO ControlerListenerManagerImpl:145 calling notifyIterationStarts on org.matsim.analysis.LegHistogramListener
2022-02-10T12:29:20,938  INFO ControlerListenerManagerImpl:145 calling notifyIterationStarts on org.matsim.analysis.LinkStatsControlerListener
2022-02-10T12:29:20,938  INFO ControlerListenerManagerImpl:145 calling notifyIterationStarts on org.matsim.core.replanning.ReplanningContextImpl
2022-02-10T12:29:20,938  INFO ControlerListenerManagerImpl:145 calling notifyIterationStarts on org.matsim.core.scoring.ScoringFunctionsForPopulation$1
2022-02-10T12:29:20,957  INFO ControlerListenerManagerImpl:145 calling notifyIterationStarts on org.matsim.core.scoring.ExperiencedPlansServiceImpl$1
2022-02-10T12:29:20,959  INFO ControlerListenerManagerImpl:148 [it.0] all ControlerIterationStartsListeners called.
2022-02-10T12:29:20,961  INFO ControlerListenerManagerImpl:224 calling notifyBeforeMobsim on org.matsim.core.controler.corelisteners.EventsHandlingImpl
2022-02-10T12:29:20,962  INFO EventsManagerImpl:190 resetting Event-Handlers
2022-02-10T12:29:20,962  INFO EventsManagerImpl:197   org.matsim.core.trafficmonitoring.TravelTimeCalculator
2022-02-10T12:29:20,962  INFO EventsManagerImpl:197   org.matsim.core.scoring.EventsToLegsAndActivities
2022-02-10T12:29:20,962  INFO EventsManagerImpl:197   org.matsim.analysis.VolumesAnalyzer
2022-02-10T12:29:20,962  INFO EventsManagerImpl:197   org.matsim.core.scoring.ScoringFunctionsForPopulation
2022-02-10T12:29:20,962  INFO EventsManagerImpl:197   org.matsim.analysis.LegHistogram
2022-02-10T12:29:20,962  INFO EventsManagerImpl:197   org.matsim.analysis.CalcLegTimes
2022-02-10T12:29:20,970  INFO EventsManagerImpl:160 adding Event-Handler: org.matsim.core.events.algorithms.EventWriterXML
2022-02-10T12:29:20,970  INFO EventsManagerImpl:166   org.matsim.core.events.algorithms.EventWriter
2022-02-10T12:29:20,970  INFO EventsManagerImpl:166   org.matsim.core.events.handler.BasicEventHandler
2022-02-10T12:29:20,970  INFO EventsManagerImpl:227     > org.matsim.api.core.v01.events.Event
2022-02-10T12:29:20,970  INFO EventsManagerImpl:176 
2022-02-10T12:29:20,970  INFO EventsManagerImpl:160 adding Event-Handler: org.matsim.core.events.algorithms.EventWriterXML
2022-02-10T12:29:20,970  INFO EventsManagerImpl:166   org.matsim.core.events.algorithms.EventWriter
2022-02-10T12:29:20,970  INFO EventsManagerImpl:166   org.matsim.core.events.handler.BasicEventHandler
2022-02-10T12:29:20,970  INFO EventsManagerImpl:227     > org.matsim.api.core.v01.events.Event
2022-02-10T12:29:20,970  INFO EventsManagerImpl:176 
2022-02-10T12:29:20,971  INFO ControlerListenerManagerImpl:224 calling notifyBeforeMobsim on org.matsim.core.controler.corelisteners.PlansDumpingImpl
2022-02-10T12:29:20,971  INFO PlansDumpingImpl:76 dumping plans...
2022-02-10T12:29:21,233  INFO Counter:69 [PopulationWriter] dumped person # 1
2022-02-10T12:29:21,234  INFO Counter:69 [PopulationWriter] dumped person # 2
2022-02-10T12:29:21,234  INFO Counter:69 [PopulationWriter] dumped person # 4
2022-02-10T12:29:21,237  INFO Counter:69 [PopulationWriter] dumped person # 8
2022-02-10T12:29:21,238  INFO PopulationWriter:144 Population written to: ./output_6_bottleneck_2cap/ITERS/it.0/0.plans.xml.gz
2022-02-10T12:29:21,239  INFO Counter:74 [PopulationWriter] dumped person # 10
2022-02-10T12:29:21,239  INFO PlansDumpingImpl:93 finished plans dump.
2022-02-10T12:29:21,239  INFO ControlerListenerManagerImpl:229 calling notifyBeforeMobsim on org.matsim.core.population.VspPlansCleaner
2022-02-10T12:29:21,241  INFO ControlerListenerManagerImpl:232 [it.0] all ControlerBeforeMobsimListeners called.
2022-02-10T12:29:21,243  INFO RandomizingTimeDistanceTravelDisutilityFactory:85  sigma: 3.0; resulting normalization: 0.011108996538242306
2022-02-10T12:29:21,245  INFO RandomizingTimeDistanceTravelDisutilityFactory:85  sigma: 3.0; resulting normalization: 0.011108996538242306
2022-02-10T12:29:21,247  INFO Counter:69 [PersonPrepareForSim] handled person # 1
2022-02-10T12:29:21,250  INFO Counter:69 [PersonPrepareForSim] handled person # 2
2022-02-10T12:29:21,250  INFO Counter:69 [PersonPrepareForSim] handled person # 4
2022-02-10T12:29:21,251  INFO Counter:69 [PersonPrepareForSim] handled person # 8
2022-02-10T12:29:21,252  INFO Counter:74 [PersonPrepareForSim] handled person # 10
2022-02-10T12:29:21,370  INFO MobsimListenerManager:49 calling addQueueSimulationListener
2022-02-10T12:29:21,371  INFO MobsimListenerManager:53   assigned class org.matsim.core.mobsim.framework.listeners.MobsimListener to interface org.matsim.core.mobsim.framework.listeners.MobsimInitializedListener
2022-02-10T12:29:21,371  INFO MobsimListenerManager:53   assigned class org.matsim.core.mobsim.framework.listeners.MobsimListener to interface org.matsim.core.mobsim.framework.listeners.MobsimAfterSimStepListener
2022-02-10T12:29:21,371  INFO MobsimListenerManager:53   assigned class org.matsim.core.mobsim.framework.listeners.MobsimListener to interface org.matsim.vis.snapshotwriters.SnapshotWriterManager
2022-02-10T12:29:21,371  INFO MobsimListenerManager:53   assigned class org.matsim.core.mobsim.framework.listeners.MobsimListener to interface org.matsim.core.mobsim.framework.listeners.MobsimListener
2022-02-10T12:29:21,372  INFO MobsimListenerManager:53   assigned class org.matsim.core.mobsim.framework.listeners.MobsimListener to interface org.matsim.core.mobsim.framework.listeners.MobsimBeforeCleanupListener
2022-02-10T12:29:21,418  INFO QSimProvider:115 Added MobsimEngine class org.matsim.core.mobsim.qsim.ActivityEngineDefaultImpl
2022-02-10T12:29:21,418  INFO QSimProvider:121 Added Activityhandler class org.matsim.core.mobsim.qsim.ActivityEngineDefaultImpl
2022-02-10T12:29:21,418  INFO QSimProvider:127 Added DepartureHandler class org.matsim.core.mobsim.qsim.qnetsimengine.VehicularDepartureHandler
2022-02-10T12:29:21,418  INFO QSimProvider:115 Added MobsimEngine class org.matsim.core.mobsim.qsim.qnetsimengine.QNetsimEngineWithThreadpool
2022-02-10T12:29:21,418  INFO QSimProvider:115 Added MobsimEngine class org.matsim.core.mobsim.qsim.DefaultTeleportationEngine
2022-02-10T12:29:21,418  INFO QSimProvider:127 Added DepartureHandler class org.matsim.core.mobsim.qsim.DefaultTeleportationEngine
2022-02-10T12:29:21,418  INFO QSimProvider:133 Added AgentSource class org.matsim.core.mobsim.qsim.agents.PopulationAgentSource
2022-02-10T12:29:21,418  INFO MobsimListenerManager:49 calling addQueueSimulationListener
2022-02-10T12:29:21,425  INFO MobsimListenerManager:53   assigned class org.matsim.core.mobsim.framework.listeners.MobsimListener to interface org.matsim.core.mobsim.framework.listeners.MobsimBeforeSimStepListener
2022-02-10T12:29:21,425  INFO MobsimListenerManager:53   assigned class org.matsim.core.mobsim.framework.listeners.MobsimListener to interface org.matsim.core.mobsim.framework.listeners.MobsimListener
2022-02-10T12:29:21,425  INFO MobsimListenerManager:53   assigned class org.matsim.core.mobsim.framework.listeners.MobsimListener to interface org.matsim.core.mobsim.qsim.messagequeueengine.MessageQueueEngine
2022-02-10T12:29:21,426  INFO QSimProvider:139 Added MobsimListener class org.matsim.core.mobsim.qsim.messagequeueengine.MessageQueueEngine
2022-02-10T12:29:21,434  INFO PopulationUtils:1194 adding scenario element for allpersons container
2022-02-10T12:29:21,434  INFO PopulationImpl:105  person # 1
2022-02-10T12:29:21,434  INFO PopulationImpl:105  person # 4
2022-02-10T12:29:21,436  INFO VehicleUtils:324 adding scenario element for allvehicles container
2022-02-10T12:29:21,436  INFO Counter:69 [VehiclesImpl] added vehicle # 1
2022-02-10T12:29:21,436  INFO Counter:69 [VehiclesImpl] added vehicle # 2
2022-02-10T12:29:21,437  INFO Counter:69 [VehiclesImpl] added vehicle # 4
2022-02-10T12:29:21,437  INFO Counter:69 [VehiclesImpl] added vehicle # 8
2022-02-10T12:29:21,447  INFO AbstractQNetsimEngine:427 Assigned 7 nodes and 7 links to QSimEngineRunner #0
2022-02-10T12:29:21,448  INFO EventsManagerImpl:137  event # 1
2022-02-10T12:29:21,460  INFO EventsManagerImpl:137  event # 4
2022-02-10T12:29:21,476  INFO AbstractQNetsimEngine:365 SIMULATION (QNetsimEngine) AT 05:58:30 : #links=0 #nodes=1
2022-02-10T12:29:21,495  INFO QSim:542 SIMULATION (NEW QSim) AT 05:58:30 : #Veh=10 lost=0 simT=0.0s realT=0s; (s/r): 0.0
2022-02-10T12:29:21,529  INFO EventsManagerImpl:137  event # 16
2022-02-10T12:29:21,539  INFO AbstractQNetsimEngine:365 SIMULATION (QNetsimEngine) AT 06:00:00 : #links=2 #nodes=1
2022-02-10T12:29:21,539  INFO QSim:542 SIMULATION (NEW QSim) AT 06:00:00 : #Veh=10 lost=0 simT=90.0s realT=0s; (s/r): Infinity
2022-02-10T12:29:21,654  INFO EventsManagerImpl:137  event # 64
2022-02-10T12:29:21,932  INFO AbstractQNetsimEngine:365 SIMULATION (QNetsimEngine) AT 07:00:00 : #links=2 #nodes=0
2022-02-10T12:29:21,933  INFO QSim:542 SIMULATION (NEW QSim) AT 07:00:00 : #Veh=10 lost=0 simT=3690.0s realT=0s; (s/r): Infinity
2022-02-10T12:29:22,225  INFO AbstractQNetsimEngine:365 SIMULATION (QNetsimEngine) AT 08:00:00 : #links=4 #nodes=0
2022-02-10T12:29:22,225  INFO QSim:542 SIMULATION (NEW QSim) AT 08:00:00 : #Veh=10 lost=0 simT=7290.0s realT=0s; (s/r): Infinity
2022-02-10T12:29:22,496  INFO AbstractQNetsimEngine:365 SIMULATION (QNetsimEngine) AT 09:00:00 : #links=3 #nodes=0
2022-02-10T12:29:22,497  INFO QSim:542 SIMULATION (NEW QSim) AT 09:00:00 : #Veh=7 lost=0 simT=10890.0s realT=1s; (s/r): 10890.0
2022-02-10T12:29:22,697  INFO EventsManagerImpl:137  event # 256
2022-02-10T12:29:22,811  INFO AbstractQNetsimEngine:365 SIMULATION (QNetsimEngine) AT 10:00:00 : #links=2 #nodes=0
2022-02-10T12:29:22,811  INFO QSim:542 SIMULATION (NEW QSim) AT 10:00:00 : #Veh=3 lost=0 simT=14490.0s realT=1s; (s/r): 14490.0
2022-02-10T12:29:23,089  INFO AbstractQNetsimEngine:365 SIMULATION (QNetsimEngine) AT 11:00:00 : #links=0 #nodes=0
2022-02-10T12:29:23,090  INFO QSim:542 SIMULATION (NEW QSim) AT 11:00:00 : #Veh=1 lost=0 simT=18090.0s realT=1s; (s/r): 18090.0
2022-02-10T12:29:23,363  INFO AbstractQNetsimEngine:365 SIMULATION (QNetsimEngine) AT 12:00:00 : #links=0 #nodes=0
2022-02-10T12:29:23,363  INFO QSim:542 SIMULATION (NEW QSim) AT 12:00:00 : #Veh=1 lost=0 simT=21690.0s realT=1s; (s/r): 21690.0
2022-02-10T12:29:23,626  INFO AbstractQNetsimEngine:365 SIMULATION (QNetsimEngine) AT 13:00:00 : #links=0 #nodes=0
2022-02-10T12:29:23,626  INFO QSim:542 SIMULATION (NEW QSim) AT 13:00:00 : #Veh=1 lost=0 simT=25290.0s realT=2s; (s/r): 12645.0
2022-02-10T12:29:23,894  INFO AbstractQNetsimEngine:365 SIMULATION (QNetsimEngine) AT 14:00:00 : #links=0 #nodes=0
2022-02-10T12:29:23,894  INFO QSim:542 SIMULATION (NEW QSim) AT 14:00:00 : #Veh=1 lost=0 simT=28890.0s realT=2s; (s/r): 14445.0
2022-02-10T12:29:24,182  INFO AbstractQNetsimEngine:365 SIMULATION (QNetsimEngine) AT 15:00:00 : #links=1 #nodes=0
2022-02-10T12:29:24,182  INFO QSim:542 SIMULATION (NEW QSim) AT 15:00:00 : #Veh=1 lost=0 simT=32490.0s realT=2s; (s/r): 16245.0
2022-02-10T12:29:24,385  INFO AbstractController$9:234 ### ITERATION 0 fires after mobsim event
2022-02-10T12:29:24,385  INFO Gbl:191 Thread performance: Thread=class org.matsim.core.events.SimStepParallelEventsManagerImpl$ProcessEventsRunnable0  cpu-time=0.5625sec
2022-02-10T12:29:24,385  INFO ControlerListenerManagerImpl:248 calling notifyAfterMobsim on org.matsim.analysis.LegTimesControlerListener
2022-02-10T12:29:24,395  INFO LegTimesControlerListener:50 [0] average trip (probably: leg) duration is: 4689 seconds = 01:18:09
2022-02-10T12:29:24,396  INFO ControlerListenerManagerImpl:248 calling notifyAfterMobsim on org.matsim.core.events.MobsimScopeEventHandling
2022-02-10T12:29:24,398  INFO ControlerListenerManagerImpl:248 calling notifyAfterMobsim on org.matsim.core.scoring.EventsToActivities$1
2022-02-10T12:29:24,400  INFO ControlerListenerManagerImpl:251 [it.0] all ControlerAfterMobsimListeners called.
2022-02-10T12:29:24,400  INFO AbstractController$4:159 ### ITERATION 0 fires scoring event
2022-02-10T12:29:24,400  INFO ControlerListenerManagerImpl:183 calling notifyScoring on org.matsim.core.scoring.PlansScoringImpl
2022-02-10T12:29:24,409  INFO NewScoreAssignerImpl:57 it: 0 msaStart: null
2022-02-10T12:29:24,411  INFO ControlerListenerManagerImpl:194 [it.0] all ControlerScoringListeners called.
2022-02-10T12:29:24,412  INFO AbstractController$5:167 ### ITERATION 0 fires iteration end event
2022-02-10T12:29:24,412  INFO ControlerListenerManagerImpl:160 calling notifyIterationEnds on org.matsim.core.controler.corelisteners.EventsHandlingImpl
2022-02-10T12:29:24,416  INFO EventsManagerImpl:181 removing Event-Handler: org.matsim.core.events.algorithms.EventWriterXML
2022-02-10T12:29:24,416  INFO EventsManagerImpl:181 removing Event-Handler: org.matsim.core.events.algorithms.EventWriterXML
2022-02-10T12:29:24,416  INFO ControlerListenerManagerImpl:160 calling notifyIterationEnds on org.matsim.core.scoring.PlansScoringImpl
2022-02-10T12:29:24,417  INFO ControlerListenerManagerImpl:167 calling notifyIterationEnds on org.matsim.counts.CountsControlerListener
2022-02-10T12:29:24,417  INFO ControlerListenerManagerImpl:167 calling notifyIterationEnds on org.matsim.analysis.ModeStatsControlerListener
2022-02-10T12:29:24,417  INFO ModeStatsControlerListener:130 Mode shares over all 20.0 trips found. MainModeIdentifier: class org.matsim.core.router.RoutingModeMainModeIdentifier
2022-02-10T12:29:24,417  INFO ModeStatsControlerListener:137 -- mode share of mode car = 1.0
2022-02-10T12:29:24,421  INFO ControlerListenerManagerImpl:167 calling notifyIterationEnds on org.matsim.analysis.ScoreStatsControlerListener
2022-02-10T12:29:24,422  INFO ScoreStatsControlerListener:181 -- avg. score of the executed plan of each agent: 65.92186823840868
2022-02-10T12:29:24,423  INFO ScoreStatsControlerListener:182 -- avg. score of the worst plan of each agent: 65.92186823840868
2022-02-10T12:29:24,423  INFO ScoreStatsControlerListener:183 -- avg. of the avg. plan score per agent: 65.92186823840868
2022-02-10T12:29:24,423  INFO ScoreStatsControlerListener:184 -- avg. score of the best plan of each agent: 65.92186823840868
2022-02-10T12:29:24,435  INFO ControlerListenerManagerImpl:167 calling notifyIterationEnds on org.matsim.analysis.IterationTravelStatsControlerListener
2022-02-10T12:29:24,457  INFO TravelDistanceStats:143 -- average leg distance per plan (executed plans only): 45000.0 meters
2022-02-10T12:29:24,459  INFO TravelDistanceStats:144 average leg distance per Person (executed plans only): 90000.0 meters (statistic on all 20 legs which have a finite distance)
2022-02-10T12:29:24,460  INFO TravelDistanceStats:145 -- average trip distance per plan (executed plans only): 45000.0 meters
2022-02-10T12:29:24,460  INFO TravelDistanceStats:146 average trip distance per Person (executed plans only): 90000.0 meters (statistic on all 20 trips which have a finite distance)
2022-02-10T12:29:24,461  INFO TravelDistanceStats:147 (TravelDistanceStats takes an average over all legs where the simulation reports travelled (network) distances
2022-02-10T12:29:24,461  INFO TravelDistanceStats:148 (and teleported legs whose route contains a distance.)
2022-02-10T12:29:25,454  INFO ControlerListenerManagerImpl:167 calling notifyIterationEnds on org.matsim.analysis.LegHistogramListener
2022-02-10T12:29:25,498  INFO LegHistogramListener:72 number of legs:	20	100%
2022-02-10T12:29:25,505  INFO LegHistogramListener:79 number of car legs:	20	100.0%
2022-02-10T12:29:25,873  INFO ControlerListenerManagerImpl:167 calling notifyIterationEnds on org.matsim.analysis.LinkStatsControlerListener
2022-02-10T12:29:25,874  INFO ControlerListenerManagerImpl:171 [it.0] all ControlerIterationEndsListeners called.
2022-02-10T12:29:25,992  INFO AbstractController:181 ### ITERATION 0 ENDS
2022-02-10T12:29:25,992  INFO AbstractController:182 ###################################################
2022-02-10T12:29:25,992  INFO AbstractController:133 ###################################################
2022-02-10T12:29:25,992  INFO AbstractController:134 ### ITERATION 1 BEGINS
2022-02-10T12:29:25,993  INFO ControlerListenerManagerImpl:145 calling notifyIterationStarts on org.matsim.analysis.LegHistogramListener
2022-02-10T12:29:25,993  INFO ControlerListenerManagerImpl:145 calling notifyIterationStarts on org.matsim.analysis.LinkStatsControlerListener
2022-02-10T12:29:25,993  INFO ControlerListenerManagerImpl:145 calling notifyIterationStarts on org.matsim.core.replanning.ReplanningContextImpl
2022-02-10T12:29:25,994  INFO ControlerListenerManagerImpl:145 calling notifyIterationStarts on org.matsim.core.scoring.ScoringFunctionsForPopulation$1
2022-02-10T12:29:25,995  INFO ControlerListenerManagerImpl:145 calling notifyIterationStarts on org.matsim.core.scoring.ExperiencedPlansServiceImpl$1
2022-02-10T12:29:25,996  INFO ControlerListenerManagerImpl:148 [it.1] all ControlerIterationStartsListeners called.
2022-02-10T12:29:25,997  INFO ControlerListenerManagerImpl:205 calling notifyReplanning on org.matsim.core.controler.corelisteners.PlansReplanningImpl
2022-02-10T12:29:25,997  INFO RandomizingTimeDistanceTravelDisutilityFactory:85  sigma: 3.0; resulting normalization: 0.011108996538242306
2022-02-10T12:29:25,998  INFO RandomizingTimeDistanceTravelDisutilityFactory:85  sigma: 3.0; resulting normalization: 0.011108996538242306
2022-02-10T12:29:26,002  INFO GenericPlanStrategyImpl:125 Plan-Strategy finished, 9 plans handled. Strategy: BestPlanSelector
2022-02-10T12:29:26,012  INFO AbstractMultithreadedModule:141 [PlanRouter] starting 2 threads, handling 1 plans
2022-02-10T12:29:26,016  INFO Counter:69 [PlanRouter] handled plan # 1
2022-02-10T12:29:26,018  INFO AbstractMultithreadedModule:156 [PlanRouter] all 2 threads finished.
2022-02-10T12:29:26,018  INFO GenericPlanStrategyImpl:125 Plan-Strategy finished, 1 plans handled. Strategy: RandomPlanSelector_ReRoute
2022-02-10T12:29:26,019  INFO ControlerListenerManagerImpl:213 [it.1] all ControlerReplanningListeners called.
2022-02-10T12:29:26,019  INFO ControlerListenerManagerImpl:224 calling notifyBeforeMobsim on org.matsim.core.controler.corelisteners.EventsHandlingImpl
2022-02-10T12:29:26,019  INFO EventsManagerImpl:190 resetting Event-Handlers
2022-02-10T12:29:26,019  INFO EventsManagerImpl:197   org.matsim.core.trafficmonitoring.TravelTimeCalculator
2022-02-10T12:29:26,019  INFO EventsManagerImpl:197   org.matsim.core.scoring.EventsToLegsAndActivities
2022-02-10T12:29:26,019  INFO EventsManagerImpl:197   org.matsim.analysis.VolumesAnalyzer
2022-02-10T12:29:26,020  INFO EventsManagerImpl:197   org.matsim.core.scoring.ScoringFunctionsForPopulation
2022-02-10T12:29:26,020  INFO EventsManagerImpl:197   org.matsim.analysis.LegHistogram
2022-02-10T12:29:26,020  INFO EventsManagerImpl:197   org.matsim.analysis.CalcLegTimes
2022-02-10T12:29:26,020  INFO ControlerListenerManagerImpl:224 calling notifyBeforeMobsim on org.matsim.core.controler.corelisteners.PlansDumpingImpl
2022-02-10T12:29:26,020  INFO PlansDumpingImpl:76 dumping plans...
2022-02-10T12:29:26,022  INFO Counter:69 [PopulationWriter] dumped person # 1
2022-02-10T12:29:26,024  INFO Counter:69 [PopulationWriter] dumped person # 2
2022-02-10T12:29:26,024  INFO Counter:69 [PopulationWriter] dumped person # 4
2022-02-10T12:29:26,026  INFO Counter:69 [PopulationWriter] dumped person # 8
2022-02-10T12:29:26,027  INFO PopulationWriter:144 Population written to: ./output_6_bottleneck_2cap/ITERS/it.1/1.plans.xml.gz
2022-02-10T12:29:26,028  INFO Counter:74 [PopulationWriter] dumped person # 10
2022-02-10T12:29:26,028  INFO PlansDumpingImpl:93 finished plans dump.
2022-02-10T12:29:26,029  INFO ControlerListenerManagerImpl:229 calling notifyBeforeMobsim on org.matsim.core.population.VspPlansCleaner
2022-02-10T12:29:26,029  INFO ControlerListenerManagerImpl:232 [it.1] all ControlerBeforeMobsimListeners called.
2022-02-10T12:29:26,030  INFO RandomizingTimeDistanceTravelDisutilityFactory:85  sigma: 3.0; resulting normalization: 0.011108996538242306
2022-02-10T12:29:26,030  INFO RandomizingTimeDistanceTravelDisutilityFactory:85  sigma: 3.0; resulting normalization: 0.011108996538242306
2022-02-10T12:29:26,031  INFO Counter:69 [PersonPrepareForSim] handled person # 1
2022-02-10T12:29:26,031  INFO Counter:69 [PersonPrepareForSim] handled person # 2
2022-02-10T12:29:26,034  INFO Counter:69 [PersonPrepareForSim] handled person # 4
2022-02-10T12:29:26,035  INFO Counter:69 [PersonPrepareForSim] handled person # 8
2022-02-10T12:29:26,036  INFO Counter:74 [PersonPrepareForSim] handled person # 10
2022-02-10T12:29:26,067  INFO MobsimListenerManager:49 calling addQueueSimulationListener
2022-02-10T12:29:26,067  INFO MobsimListenerManager:53   assigned class org.matsim.core.mobsim.framework.listeners.MobsimListener to interface org.matsim.core.mobsim.framework.listeners.MobsimInitializedListener
2022-02-10T12:29:26,067  INFO MobsimListenerManager:53   assigned class org.matsim.core.mobsim.framework.listeners.MobsimListener to interface org.matsim.core.mobsim.framework.listeners.MobsimAfterSimStepListener
2022-02-10T12:29:26,068  INFO MobsimListenerManager:53   assigned class org.matsim.core.mobsim.framework.listeners.MobsimListener to interface org.matsim.vis.snapshotwriters.SnapshotWriterManager
2022-02-10T12:29:26,069  INFO MobsimListenerManager:53   assigned class org.matsim.core.mobsim.framework.listeners.MobsimListener to interface org.matsim.core.mobsim.framework.listeners.MobsimListener
2022-02-10T12:29:26,069  INFO MobsimListenerManager:53   assigned class org.matsim.core.mobsim.framework.listeners.MobsimListener to interface org.matsim.core.mobsim.framework.listeners.MobsimBeforeCleanupListener
2022-02-10T12:29:26,070  INFO QSimProvider:115 Added MobsimEngine class org.matsim.core.mobsim.qsim.ActivityEngineDefaultImpl
2022-02-10T12:29:26,071  INFO QSimProvider:121 Added Activityhandler class org.matsim.core.mobsim.qsim.ActivityEngineDefaultImpl
2022-02-10T12:29:26,071  INFO QSimProvider:127 Added DepartureHandler class org.matsim.core.mobsim.qsim.qnetsimengine.VehicularDepartureHandler
2022-02-10T12:29:26,071  INFO QSimProvider:115 Added MobsimEngine class org.matsim.core.mobsim.qsim.qnetsimengine.QNetsimEngineWithThreadpool
2022-02-10T12:29:26,071  INFO QSimProvider:115 Added MobsimEngine class org.matsim.core.mobsim.qsim.DefaultTeleportationEngine
2022-02-10T12:29:26,071  INFO QSimProvider:127 Added DepartureHandler class org.matsim.core.mobsim.qsim.DefaultTeleportationEngine
2022-02-10T12:29:26,071  INFO QSimProvider:133 Added AgentSource class org.matsim.core.mobsim.qsim.agents.PopulationAgentSource
2022-02-10T12:29:26,071  INFO MobsimListenerManager:49 calling addQueueSimulationListener
2022-02-10T12:29:26,071  INFO MobsimListenerManager:53   assigned class org.matsim.core.mobsim.framework.listeners.MobsimListener to interface org.matsim.core.mobsim.framework.listeners.MobsimBeforeSimStepListener
2022-02-10T12:29:26,072  INFO MobsimListenerManager:53   assigned class org.matsim.core.mobsim.framework.listeners.MobsimListener to interface org.matsim.core.mobsim.framework.listeners.MobsimListener
2022-02-10T12:29:26,072  INFO MobsimListenerManager:53   assigned class org.matsim.core.mobsim.framework.listeners.MobsimListener to interface org.matsim.core.mobsim.qsim.messagequeueengine.MessageQueueEngine
2022-02-10T12:29:26,072  INFO QSimProvider:139 Added MobsimListener class org.matsim.core.mobsim.qsim.messagequeueengine.MessageQueueEngine
2022-02-10T12:29:26,072  INFO AbstractQNetsimEngine:427 Assigned 7 nodes and 7 links to QSimEngineRunner #0
2022-02-10T12:29:26,074  INFO AbstractQNetsimEngine:365 SIMULATION (QNetsimEngine) AT 05:58:30 : #links=0 #nodes=1
2022-02-10T12:29:26,074  INFO QSim:542 SIMULATION (NEW QSim) AT 05:58:30 : #Veh=10 lost=0 simT=0.0s realT=0s; (s/r): 0.0
2022-02-10T12:29:26,086  INFO AbstractQNetsimEngine:365 SIMULATION (QNetsimEngine) AT 06:00:00 : #links=2 #nodes=1
2022-02-10T12:29:26,086  INFO QSim:542 SIMULATION (NEW QSim) AT 06:00:00 : #Veh=10 lost=0 simT=90.0s realT=0s; (s/r): Infinity
2022-02-10T12:29:26,418  INFO AbstractQNetsimEngine:365 SIMULATION (QNetsimEngine) AT 07:00:00 : #links=2 #nodes=0
2022-02-10T12:29:26,418  INFO QSim:542 SIMULATION (NEW QSim) AT 07:00:00 : #Veh=10 lost=0 simT=3690.0s realT=0s; (s/r): Infinity
2022-02-10T12:29:26,720  INFO AbstractQNetsimEngine:365 SIMULATION (QNetsimEngine) AT 08:00:00 : #links=4 #nodes=0
2022-02-10T12:29:26,720  INFO QSim:542 SIMULATION (NEW QSim) AT 08:00:00 : #Veh=10 lost=0 simT=7290.0s realT=0s; (s/r): Infinity
2022-02-10T12:29:27,014  INFO AbstractQNetsimEngine:365 SIMULATION (QNetsimEngine) AT 09:00:00 : #links=3 #nodes=0
2022-02-10T12:29:27,014  INFO QSim:542 SIMULATION (NEW QSim) AT 09:00:00 : #Veh=7 lost=0 simT=10890.0s realT=0s; (s/r): Infinity
2022-02-10T12:29:27,298  INFO AbstractQNetsimEngine:365 SIMULATION (QNetsimEngine) AT 10:00:00 : #links=2 #nodes=0
2022-02-10T12:29:27,298  INFO QSim:542 SIMULATION (NEW QSim) AT 10:00:00 : #Veh=3 lost=0 simT=14490.0s realT=1s; (s/r): 14490.0
2022-02-10T12:29:27,582  INFO AbstractQNetsimEngine:365 SIMULATION (QNetsimEngine) AT 11:00:00 : #links=0 #nodes=0
2022-02-10T12:29:27,583  INFO QSim:542 SIMULATION (NEW QSim) AT 11:00:00 : #Veh=1 lost=0 simT=18090.0s realT=1s; (s/r): 18090.0
2022-02-10T12:29:27,873  INFO AbstractQNetsimEngine:365 SIMULATION (QNetsimEngine) AT 12:00:00 : #links=0 #nodes=0
2022-02-10T12:29:27,873  INFO QSim:542 SIMULATION (NEW QSim) AT 12:00:00 : #Veh=1 lost=0 simT=21690.0s realT=1s; (s/r): 21690.0
2022-02-10T12:29:28,143  INFO AbstractQNetsimEngine:365 SIMULATION (QNetsimEngine) AT 13:00:00 : #links=0 #nodes=0
2022-02-10T12:29:28,143  INFO QSim:542 SIMULATION (NEW QSim) AT 13:00:00 : #Veh=1 lost=0 simT=25290.0s realT=2s; (s/r): 12645.0
2022-02-10T12:29:28,397  INFO AbstractQNetsimEngine:365 SIMULATION (QNetsimEngine) AT 14:00:00 : #links=0 #nodes=0
2022-02-10T12:29:28,397  INFO QSim:542 SIMULATION (NEW QSim) AT 14:00:00 : #Veh=1 lost=0 simT=28890.0s realT=2s; (s/r): 14445.0
2022-02-10T12:29:28,652  INFO AbstractQNetsimEngine:365 SIMULATION (QNetsimEngine) AT 15:00:00 : #links=1 #nodes=0
2022-02-10T12:29:28,653  INFO QSim:542 SIMULATION (NEW QSim) AT 15:00:00 : #Veh=1 lost=0 simT=32490.0s realT=2s; (s/r): 16245.0
2022-02-10T12:29:28,840  INFO AbstractController$9:234 ### ITERATION 1 fires after mobsim event
2022-02-10T12:29:28,840  INFO ControlerListenerManagerImpl:248 calling notifyAfterMobsim on org.matsim.analysis.LegTimesControlerListener
2022-02-10T12:29:28,840  INFO Gbl:191 Thread performance: Thread=class org.matsim.core.events.SimStepParallelEventsManagerImpl$ProcessEventsRunnable0  cpu-time=0.53125sec
2022-02-10T12:29:28,842  INFO LegTimesControlerListener:50 [1] average trip (probably: leg) duration is: 4689 seconds = 01:18:09
2022-02-10T12:29:28,842  INFO ControlerListenerManagerImpl:248 calling notifyAfterMobsim on org.matsim.core.events.MobsimScopeEventHandling
2022-02-10T12:29:28,842  INFO ControlerListenerManagerImpl:248 calling notifyAfterMobsim on org.matsim.core.scoring.EventsToActivities$1
2022-02-10T12:29:28,844  INFO ControlerListenerManagerImpl:251 [it.1] all ControlerAfterMobsimListeners called.
2022-02-10T12:29:28,844  INFO AbstractController$4:159 ### ITERATION 1 fires scoring event
2022-02-10T12:29:28,844  INFO ControlerListenerManagerImpl:183 calling notifyScoring on org.matsim.core.scoring.PlansScoringImpl
2022-02-10T12:29:28,844  INFO NewScoreAssignerImpl:57 it: 1 msaStart: null
2022-02-10T12:29:28,844  INFO ControlerListenerManagerImpl:194 [it.1] all ControlerScoringListeners called.
2022-02-10T12:29:28,844  INFO AbstractController$5:167 ### ITERATION 1 fires iteration end event
2022-02-10T12:29:28,845  INFO ControlerListenerManagerImpl:160 calling notifyIterationEnds on org.matsim.core.controler.corelisteners.EventsHandlingImpl
2022-02-10T12:29:28,845  INFO ControlerListenerManagerImpl:160 calling notifyIterationEnds on org.matsim.core.scoring.PlansScoringImpl
2022-02-10T12:29:28,845  INFO ControlerListenerManagerImpl:167 calling notifyIterationEnds on org.matsim.counts.CountsControlerListener
2022-02-10T12:29:28,845  INFO ControlerListenerManagerImpl:167 calling notifyIterationEnds on org.matsim.analysis.ModeStatsControlerListener
2022-02-10T12:29:28,845  INFO ModeStatsControlerListener:130 Mode shares over all 20.0 trips found. MainModeIdentifier: class org.matsim.core.router.RoutingModeMainModeIdentifier
2022-02-10T12:29:28,845  INFO ModeStatsControlerListener:137 -- mode share of mode car = 1.0
2022-02-10T12:29:28,922  INFO ControlerListenerManagerImpl:167 calling notifyIterationEnds on org.matsim.analysis.ScoreStatsControlerListener
2022-02-10T12:29:28,922  INFO ScoreStatsControlerListener:181 -- avg. score of the executed plan of each agent: 65.92186823840868
[...]
2022-02-10T12:30:04,980  INFO EventsManagerImpl:197   org.matsim.core.trafficmonitoring.TravelTimeCalculator
2022-02-10T12:30:04,980  INFO EventsManagerImpl:197   org.matsim.core.scoring.EventsToLegsAndActivities
2022-02-10T12:30:04,980  INFO EventsManagerImpl:197   org.matsim.analysis.VolumesAnalyzer
2022-02-10T12:30:04,980  INFO EventsManagerImpl:197   org.matsim.core.scoring.ScoringFunctionsForPopulation
2022-02-10T12:30:04,981  INFO EventsManagerImpl:197   org.matsim.analysis.LegHistogram
2022-02-10T12:30:04,981  INFO EventsManagerImpl:197   org.matsim.analysis.CalcLegTimes
2022-02-10T12:30:04,982  INFO EventsManagerImpl:160 adding Event-Handler: org.matsim.core.events.algorithms.EventWriterXML
2022-02-10T12:30:04,982  INFO EventsManagerImpl:166   org.matsim.core.events.algorithms.EventWriter
2022-02-10T12:30:04,983  INFO EventsManagerImpl:166   org.matsim.core.events.handler.BasicEventHandler
2022-02-10T12:30:04,983  INFO EventsManagerImpl:227     > org.matsim.api.core.v01.events.Event
2022-02-10T12:30:04,983  INFO EventsManagerImpl:176 
2022-02-10T12:30:04,983  INFO EventsManagerImpl:160 adding Event-Handler: org.matsim.core.events.algorithms.EventWriterXML
2022-02-10T12:30:04,983  INFO EventsManagerImpl:166   org.matsim.core.events.algorithms.EventWriter
2022-02-10T12:30:04,983  INFO EventsManagerImpl:166   org.matsim.core.events.handler.BasicEventHandler
2022-02-10T12:30:04,983  INFO EventsManagerImpl:227     > org.matsim.api.core.v01.events.Event
2022-02-10T12:30:04,983  INFO EventsManagerImpl:176 
2022-02-10T12:30:04,983  INFO ControlerListenerManagerImpl:224 calling notifyBeforeMobsim on org.matsim.core.controler.corelisteners.PlansDumpingImpl
2022-02-10T12:30:04,983  INFO PlansDumpingImpl:76 dumping plans...
2022-02-10T12:30:04,987  INFO Counter:69 [PopulationWriter] dumped person # 1
2022-02-10T12:30:04,987  INFO Counter:69 [PopulationWriter] dumped person # 2
2022-02-10T12:30:04,987  INFO Counter:69 [PopulationWriter] dumped person # 4
2022-02-10T12:30:04,990  INFO Counter:69 [PopulationWriter] dumped person # 8
2022-02-10T12:30:04,990  INFO PopulationWriter:144 Population written to: ./output_6_bottleneck_2cap/ITERS/it.10/10.plans.xml.gz
2022-02-10T12:30:04,991  INFO Counter:74 [PopulationWriter] dumped person # 10
2022-02-10T12:30:04,991  INFO PlansDumpingImpl:93 finished plans dump.
2022-02-10T12:30:04,991  INFO ControlerListenerManagerImpl:229 calling notifyBeforeMobsim on org.matsim.core.population.VspPlansCleaner
2022-02-10T12:30:04,992  INFO ControlerListenerManagerImpl:232 [it.10] all ControlerBeforeMobsimListeners called.
2022-02-10T12:30:04,994  INFO Counter:69 [PersonPrepareForSim] handled person # 2
2022-02-10T12:30:04,994  INFO Counter:69 [PersonPrepareForSim] handled person # 1
2022-02-10T12:30:04,995  INFO Counter:69 [PersonPrepareForSim] handled person # 4
2022-02-10T12:30:04,995  INFO Counter:69 [PersonPrepareForSim] handled person # 8
2022-02-10T12:30:04,995  INFO Counter:74 [PersonPrepareForSim] handled person # 10
2022-02-10T12:30:05,016  INFO MobsimListenerManager:49 calling addQueueSimulationListener
2022-02-10T12:30:05,016  INFO MobsimListenerManager:53   assigned class org.matsim.core.mobsim.framework.listeners.MobsimListener to interface org.matsim.core.mobsim.framework.listeners.MobsimInitializedListener
2022-02-10T12:30:05,016  INFO MobsimListenerManager:53   assigned class org.matsim.core.mobsim.framework.listeners.MobsimListener to interface org.matsim.core.mobsim.framework.listeners.MobsimAfterSimStepListener
2022-02-10T12:30:05,016  INFO MobsimListenerManager:53   assigned class org.matsim.core.mobsim.framework.listeners.MobsimListener to interface org.matsim.vis.snapshotwriters.SnapshotWriterManager
2022-02-10T12:30:05,016  INFO MobsimListenerManager:53   assigned class org.matsim.core.mobsim.framework.listeners.MobsimListener to interface org.matsim.core.mobsim.framework.listeners.MobsimListener
2022-02-10T12:30:05,016  INFO MobsimListenerManager:53   assigned class org.matsim.core.mobsim.framework.listeners.MobsimListener to interface org.matsim.core.mobsim.framework.listeners.MobsimBeforeCleanupListener
2022-02-10T12:30:05,016  INFO QSimProvider:115 Added MobsimEngine class org.matsim.core.mobsim.qsim.ActivityEngineDefaultImpl
2022-02-10T12:30:05,020  INFO QSimProvider:121 Added Activityhandler class org.matsim.core.mobsim.qsim.ActivityEngineDefaultImpl
2022-02-10T12:30:05,021  INFO QSimProvider:127 Added DepartureHandler class org.matsim.core.mobsim.qsim.qnetsimengine.VehicularDepartureHandler
2022-02-10T12:30:05,021  INFO QSimProvider:115 Added MobsimEngine class org.matsim.core.mobsim.qsim.qnetsimengine.QNetsimEngineWithThreadpool
2022-02-10T12:30:05,023  INFO QSimProvider:115 Added MobsimEngine class org.matsim.core.mobsim.qsim.DefaultTeleportationEngine
2022-02-10T12:30:05,023  INFO QSimProvider:127 Added DepartureHandler class org.matsim.core.mobsim.qsim.DefaultTeleportationEngine
2022-02-10T12:30:05,024  INFO QSimProvider:133 Added AgentSource class org.matsim.core.mobsim.qsim.agents.PopulationAgentSource
2022-02-10T12:30:05,024  INFO MobsimListenerManager:49 calling addQueueSimulationListener
2022-02-10T12:30:05,024  INFO MobsimListenerManager:53   assigned class org.matsim.core.mobsim.framework.listeners.MobsimListener to interface org.matsim.core.mobsim.framework.listeners.MobsimBeforeSimStepListener
2022-02-10T12:30:05,024  INFO MobsimListenerManager:53   assigned class org.matsim.core.mobsim.framework.listeners.MobsimListener to interface org.matsim.core.mobsim.framework.listeners.MobsimListener
2022-02-10T12:30:05,024  INFO MobsimListenerManager:53   assigned class org.matsim.core.mobsim.framework.listeners.MobsimListener to interface org.matsim.core.mobsim.qsim.messagequeueengine.MessageQueueEngine
2022-02-10T12:30:05,024  INFO QSimProvider:139 Added MobsimListener class org.matsim.core.mobsim.qsim.messagequeueengine.MessageQueueEngine
2022-02-10T12:30:05,024  INFO AbstractQNetsimEngine:427 Assigned 7 nodes and 7 links to QSimEngineRunner #0
2022-02-10T12:30:05,024  INFO AbstractQNetsimEngine:365 SIMULATION (QNetsimEngine) AT 05:58:30 : #links=0 #nodes=1
2022-02-10T12:30:05,024  INFO QSim:542 SIMULATION (NEW QSim) AT 05:58:30 : #Veh=10 lost=0 simT=0.0s realT=0s; (s/r): 0.0
2022-02-10T12:30:05,042  INFO AbstractQNetsimEngine:365 SIMULATION (QNetsimEngine) AT 06:00:00 : #links=2 #nodes=1
2022-02-10T12:30:05,042  INFO QSim:542 SIMULATION (NEW QSim) AT 06:00:00 : #Veh=10 lost=0 simT=90.0s realT=0s; (s/r): Infinity
2022-02-10T12:30:05,599  INFO AbstractQNetsimEngine:365 SIMULATION (QNetsimEngine) AT 07:00:00 : #links=2 #nodes=0
2022-02-10T12:30:05,599  INFO QSim:542 SIMULATION (NEW QSim) AT 07:00:00 : #Veh=10 lost=0 simT=3690.0s realT=0s; (s/r): Infinity
2022-02-10T12:30:06,157  INFO AbstractQNetsimEngine:365 SIMULATION (QNetsimEngine) AT 08:00:00 : #links=4 #nodes=0
2022-02-10T12:30:06,157  INFO QSim:542 SIMULATION (NEW QSim) AT 08:00:00 : #Veh=10 lost=0 simT=7290.0s realT=1s; (s/r): 7290.0
2022-02-10T12:30:06,763  INFO AbstractQNetsimEngine:365 SIMULATION (QNetsimEngine) AT 09:00:00 : #links=3 #nodes=0
2022-02-10T12:30:06,763  INFO QSim:542 SIMULATION (NEW QSim) AT 09:00:00 : #Veh=7 lost=0 simT=10890.0s realT=1s; (s/r): 10890.0
2022-02-10T12:30:07,377  INFO AbstractQNetsimEngine:365 SIMULATION (QNetsimEngine) AT 10:00:00 : #links=2 #nodes=0
2022-02-10T12:30:07,377  INFO QSim:542 SIMULATION (NEW QSim) AT 10:00:00 : #Veh=3 lost=0 simT=14490.0s realT=2s; (s/r): 7245.0
2022-02-10T12:30:07,963  INFO AbstractQNetsimEngine:365 SIMULATION (QNetsimEngine) AT 11:00:00 : #links=0 #nodes=0
2022-02-10T12:30:07,963  INFO QSim:542 SIMULATION (NEW QSim) AT 11:00:00 : #Veh=1 lost=0 simT=18090.0s realT=2s; (s/r): 9045.0
2022-02-10T12:30:08,576  INFO AbstractQNetsimEngine:365 SIMULATION (QNetsimEngine) AT 12:00:00 : #links=0 #nodes=0
2022-02-10T12:30:08,576  INFO QSim:542 SIMULATION (NEW QSim) AT 12:00:00 : #Veh=1 lost=0 simT=21690.0s realT=3s; (s/r): 7230.0
2022-02-10T12:30:09,178  INFO AbstractQNetsimEngine:365 SIMULATION (QNetsimEngine) AT 13:00:00 : #links=0 #nodes=0
2022-02-10T12:30:09,178  INFO QSim:542 SIMULATION (NEW QSim) AT 13:00:00 : #Veh=1 lost=0 simT=25290.0s realT=4s; (s/r): 6322.5
2022-02-10T12:30:09,743  INFO AbstractQNetsimEngine:365 SIMULATION (QNetsimEngine) AT 14:00:00 : #links=0 #nodes=0
2022-02-10T12:30:09,743  INFO QSim:542 SIMULATION (NEW QSim) AT 14:00:00 : #Veh=1 lost=0 simT=28890.0s realT=4s; (s/r): 7222.5
2022-02-10T12:30:10,323  INFO AbstractQNetsimEngine:365 SIMULATION (QNetsimEngine) AT 15:00:00 : #links=1 #nodes=0
2022-02-10T12:30:10,323  INFO QSim:542 SIMULATION (NEW QSim) AT 15:00:00 : #Veh=1 lost=0 simT=32490.0s realT=5s; (s/r): 6498.0
2022-02-10T12:30:10,761  INFO AbstractController$9:234 ### ITERATION 10 fires after mobsim event
2022-02-10T12:30:10,771  INFO ControlerListenerManagerImpl:248 calling notifyAfterMobsim on org.matsim.analysis.LegTimesControlerListener
2022-02-10T12:30:10,761  INFO Gbl:191 Thread performance: Thread=class org.matsim.core.events.SimStepParallelEventsManagerImpl$ProcessEventsRunnable0  cpu-time=0.890625sec
2022-02-10T12:30:10,773  INFO LegTimesControlerListener:50 [10] average trip (probably: leg) duration is: 4689 seconds = 01:18:09
2022-02-10T12:30:10,774  INFO ControlerListenerManagerImpl:248 calling notifyAfterMobsim on org.matsim.core.events.MobsimScopeEventHandling
2022-02-10T12:30:10,774  INFO ControlerListenerManagerImpl:248 calling notifyAfterMobsim on org.matsim.core.scoring.EventsToActivities$1
2022-02-10T12:30:10,774  INFO ControlerListenerManagerImpl:251 [it.10] all ControlerAfterMobsimListeners called.
2022-02-10T12:30:10,775  INFO AbstractController$4:159 ### ITERATION 10 fires scoring event
2022-02-10T12:30:10,775  INFO ControlerListenerManagerImpl:183 calling notifyScoring on org.matsim.core.scoring.PlansScoringImpl
2022-02-10T12:30:10,775  INFO NewScoreAssignerImpl:57 it: 10 msaStart: null
2022-02-10T12:30:10,775  INFO ControlerListenerManagerImpl:194 [it.10] all ControlerScoringListeners called.
2022-02-10T12:30:10,776  INFO AbstractController$5:167 ### ITERATION 10 fires iteration end event
2022-02-10T12:30:10,776  INFO ControlerListenerManagerImpl:160 calling notifyIterationEnds on org.matsim.core.controler.corelisteners.EventsHandlingImpl
2022-02-10T12:30:10,776  INFO EventsManagerImpl:181 removing Event-Handler: org.matsim.core.events.algorithms.EventWriterXML
2022-02-10T12:30:10,776  INFO EventsManagerImpl:181 removing Event-Handler: org.matsim.core.events.algorithms.EventWriterXML
2022-02-10T12:30:10,776  INFO ControlerListenerManagerImpl:160 calling notifyIterationEnds on org.matsim.core.scoring.PlansScoringImpl
2022-02-10T12:30:10,779  INFO ControlerListenerManagerImpl:167 calling notifyIterationEnds on org.matsim.counts.CountsControlerListener
2022-02-10T12:30:10,780  INFO CountSimComparisonTableWriter:93 Writing CountsSimComparison to ./output_6_bottleneck_2cap/ITERS/it.10/10.countscompare.txt
2022-02-10T12:30:10,790  INFO CountSimComparisonTableWriter:134 Writing 'average weekday traffic volume' to ./output_6_bottleneck_2cap/ITERS/it.10/10.countscompareAWTV.txt
2022-02-10T12:30:10,793  INFO ControlerListenerManagerImpl:167 calling notifyIterationEnds on org.matsim.analysis.ModeStatsControlerListener
2022-02-10T12:30:10,794  INFO ModeStatsControlerListener:130 Mode shares over all 20.0 trips found. MainModeIdentifier: class org.matsim.core.router.RoutingModeMainModeIdentifier
2022-02-10T12:30:10,794  INFO ModeStatsControlerListener:137 -- mode share of mode car = 1.0
2022-02-10T12:30:10,901  INFO ControlerListenerManagerImpl:167 calling notifyIterationEnds on org.matsim.analysis.ScoreStatsControlerListener
2022-02-10T12:30:10,902  INFO ScoreStatsControlerListener:181 -- avg. score of the executed plan of each agent: 65.92186823840868
2022-02-10T12:30:10,902  INFO ScoreStatsControlerListener:182 -- avg. score of the worst plan of each agent: 65.92186823840868
2022-02-10T12:30:10,902  INFO ScoreStatsControlerListener:183 -- avg. of the avg. plan score per agent: 65.92186823840868
2022-02-10T12:30:10,902  INFO ScoreStatsControlerListener:184 -- avg. score of the best plan of each agent: 65.92186823840868
2022-02-10T12:30:11,030  INFO ControlerListenerManagerImpl:167 calling notifyIterationEnds on org.matsim.analysis.IterationTravelStatsControlerListener
2022-02-10T12:30:11,031  INFO TravelDistanceStats:143 -- average leg distance per plan (executed plans only): 45000.0 meters
2022-02-10T12:30:11,031  INFO TravelDistanceStats:144 average leg distance per Person (executed plans only): 90000.0 meters (statistic on all 20 legs which have a finite distance)
2022-02-10T12:30:11,031  INFO TravelDistanceStats:145 -- average trip distance per plan (executed plans only): 45000.0 meters
2022-02-10T12:30:11,031  INFO TravelDistanceStats:146 average trip distance per Person (executed plans only): 90000.0 meters (statistic on all 20 trips which have a finite distance)
2022-02-10T12:30:11,031  INFO TravelDistanceStats:147 (TravelDistanceStats takes an average over all legs where the simulation reports travelled (network) distances
2022-02-10T12:30:11,031  INFO TravelDistanceStats:148 (and teleported legs whose route contains a distance.)
2022-02-10T12:30:11,611  INFO ControlerListenerManagerImpl:167 calling notifyIterationEnds on org.matsim.analysis.LegHistogramListener
2022-02-10T12:30:11,616  INFO LegHistogramListener:72 number of legs:	20	100%
2022-02-10T12:30:11,616  INFO LegHistogramListener:79 number of car legs:	20	100.0%
2022-02-10T12:30:11,873  INFO ControlerListenerManagerImpl:167 calling notifyIterationEnds on org.matsim.analysis.LinkStatsControlerListener
2022-02-10T12:30:11,882  INFO ControlerListenerManagerImpl:171 [it.10] all ControlerIterationEndsListeners called.
2022-02-10T12:30:12,048  INFO AbstractController:181 ### ITERATION 10 ENDS
2022-02-10T12:30:12,049  INFO AbstractController:182 ###################################################
2022-02-10T12:30:12,049  INFO MatsimRuntimeModifications:79 S H U T D O W N   ---   start shutdown.
2022-02-10T12:30:12,049  INFO ControlerListenerManagerImpl:121 calling notifyShutdown on org.matsim.core.controler.corelisteners.EventsHandlingImpl
2022-02-10T12:30:12,049  INFO ControlerListenerManagerImpl:121 calling notifyShutdown on org.matsim.core.controler.corelisteners.DumpDataAtEndImpl
2022-02-10T12:30:12,056  INFO Counter:69 [PopulationWriter] dumped person # 1
2022-02-10T12:30:12,057  INFO Counter:69 [PopulationWriter] dumped person # 2
2022-02-10T12:30:12,058  INFO Counter:69 [PopulationWriter] dumped person # 4
2022-02-10T12:30:12,059  INFO Counter:69 [PopulationWriter] dumped person # 8
2022-02-10T12:30:12,059  INFO PopulationWriter:144 Population written to: ./output_6_bottleneck_2cap/output_plans.xml.gz
2022-02-10T12:30:12,062  INFO Counter:74 [PopulationWriter] dumped person # 10
2022-02-10T12:30:12,063  INFO NetworkWriter:69 Writing network to file: ./output_6_bottleneck_2cap/output_network.xml.gz...
2022-02-10T12:30:12,077  INFO NetworkWriter:72 done.
2022-02-10T12:30:12,096  INFO Config:572 setting context to [file:/C:/Users/mailm/Studium/MA/matsim/matsim-train-study/simple-2-loop/]
2022-02-10T12:30:12,110  INFO Config:572 setting context to [file:/C:/Users/mailm/Studium/MA/matsim/matsim-train-study/simple-2-loop/]
2022-02-10T12:30:12,113  INFO Config:572 setting context to [file:/C:/Users/mailm/Studium/MA/matsim/matsim-train-study/simple-2-loop/]
2022-02-10T12:30:12,130  INFO Config:572 setting context to [file:/C:/Users/mailm/Studium/MA/matsim/matsim-train-study/simple-2-loop/]
2022-02-10T12:30:12,155  INFO Config:572 setting context to [file:/C:/Users/mailm/Studium/MA/matsim/matsim-train-study/simple-2-loop/]
2022-02-10T12:30:12,160  INFO Config:572 setting context to [file:/C:/Users/mailm/Studium/MA/matsim/matsim-train-study/simple-2-loop/]
2022-02-10T12:30:12,160  INFO Config:572 setting context to [file:/C:/Users/mailm/Studium/MA/matsim/matsim-train-study/simple-2-loop/]
2022-02-10T12:30:12,175  INFO Config:572 setting context to [file:/C:/Users/mailm/Studium/MA/matsim/matsim-train-study/simple-2-loop/]
2022-02-10T12:30:12,179  INFO Config:572 setting context to [file:/C:/Users/mailm/Studium/MA/matsim/matsim-train-study/simple-2-loop/]
2022-02-10T12:30:12,187  INFO Config:572 setting context to [file:/C:/Users/mailm/Studium/MA/matsim/matsim-train-study/simple-2-loop/]
2022-02-10T12:30:12,187  INFO Config:572 setting context to [file:/C:/Users/mailm/Studium/MA/matsim/matsim-train-study/simple-2-loop/]
2022-02-10T12:30:12,195  INFO Config:572 setting context to [file:/C:/Users/mailm/Studium/MA/matsim/matsim-train-study/simple-2-loop/]
2022-02-10T12:30:12,203  INFO Config:572 setting context to [file:/C:/Users/mailm/Studium/MA/matsim/matsim-train-study/simple-2-loop/]
2022-02-10T12:30:12,215  INFO Config:572 setting context to [file:/C:/Users/mailm/Studium/MA/matsim/matsim-train-study/simple-2-loop/]
2022-02-10T12:30:12,227  INFO Config:572 setting context to [file:/C:/Users/mailm/Studium/MA/matsim/matsim-train-study/simple-2-loop/]
2022-02-10T12:30:12,235  INFO Config:572 setting context to [file:/C:/Users/mailm/Studium/MA/matsim/matsim-train-study/simple-2-loop/]
2022-02-10T12:30:12,235  INFO Config:572 setting context to [file:/C:/Users/mailm/Studium/MA/matsim/matsim-train-study/simple-2-loop/]
2022-02-10T12:30:12,266  INFO Config:572 setting context to [file:/C:/Users/mailm/Studium/MA/matsim/matsim-train-study/simple-2-loop/]
2022-02-10T12:30:12,266  INFO Config:572 setting context to [file:/C:/Users/mailm/Studium/MA/matsim/matsim-train-study/simple-2-loop/]
2022-02-10T12:30:12,295  INFO Config:572 setting context to [file:/C:/Users/mailm/Studium/MA/matsim/matsim-train-study/simple-2-loop/]
2022-02-10T12:30:12,297  INFO Config:572 setting context to [file:/C:/Users/mailm/Studium/MA/matsim/matsim-train-study/simple-2-loop/]
2022-02-10T12:30:12,307  INFO Config:572 setting context to [file:/C:/Users/mailm/Studium/MA/matsim/matsim-train-study/simple-2-loop/]
2022-02-10T12:30:12,312  INFO Config:572 setting context to [file:/C:/Users/mailm/Studium/MA/matsim/matsim-train-study/simple-2-loop/]
2022-02-10T12:30:12,315  INFO Config:572 setting context to [file:/C:/Users/mailm/Studium/MA/matsim/matsim-train-study/simple-2-loop/]
2022-02-10T12:30:12,315  INFO Config:572 setting context to [file:/C:/Users/mailm/Studium/MA/matsim/matsim-train-study/simple-2-loop/]
2022-02-10T12:30:12,331  INFO MatsimVehicleWriter:54 about to write vehicles to: ./output_6_bottleneck_2cap/output_vehicles.xml.gz
2022-02-10T12:30:12,331  INFO VehicleWriterV2:63 about to write vehicles to: ./output_6_bottleneck_2cap/output_vehicles.xml.gz
2022-02-10T12:30:12,342  INFO MatsimVehicleWriter:54 about to write vehicles to: ./output_6_bottleneck_2cap/output_allVehicles.xml.gz
2022-02-10T12:30:12,343  INFO VehicleWriterV2:63 about to write vehicles to: ./output_6_bottleneck_2cap/output_allVehicles.xml.gz
2022-02-10T12:30:12,347  INFO HouseholdsWriterV10:66 about to write  households to: ./output_6_bottleneck_2cap/output_households.xml.gz
2022-02-10T12:30:12,349  INFO Counter:74 [HouseholdsWriter] wrote household # 0
2022-02-10T12:30:12,378  INFO ControlerListenerManagerImpl:126 calling notifyShutdown on org.matsim.analysis.ScoreStatsControlerListener
2022-02-10T12:30:12,378  INFO ControlerListenerManagerImpl:126 calling notifyShutdown on org.matsim.analysis.IterationTravelStatsControlerListener
2022-02-10T12:30:12,379  INFO IterationTravelStatsControlerListener:104 Writing all Person and Attributes to personscsv
2022-02-10T12:30:12,385  INFO IterationTravelStatsControlerListener:148 ...done
2022-02-10T12:30:12,385  INFO ControlerListenerManagerImpl:129 all ControlerShutdownListeners called.
2022-02-10T12:30:12,385  INFO MatsimRuntimeModifications:102 S H U T D O W N   ---   shutdown completed.
2022-02-10T12:30:12,385  INFO OutputDirectoryLogging:170 closing the logfile, i.e. messages sent to the logger after this message are not written to the logfile.
